
#######################################################################
#
#                 Cambridge Crystallographic Data Centre
#                                CCDC 
#
#######################################################################
#
# If this CIF has been generated from an entry in the Cambridge 
# Structural Database, then it will include bibliographic, chemical, 
# crystal, experimental, refinement or atomic coordinate data resulting 
# from the CCDC's data processing and validation procedures.
#
#######################################################################

data_BACXUB
_chemical_formula_moiety         'C108 H132 Ba2 Co4 N16 O24 S12,2(C2 H3 N1)'
_chemical_name_systematic        
"bis(\m~3~-N,N',N''-(Nitrilotriethane-2,1-diyl)tris(4-methylbenzenesulfonamide))-bis(\m~2~-N,N',N''-(nitrilotriethane-2,1-diyl)tris(4-methylbenzenesulfonamide))-di-barium-tetra-cobalt acetonitrile solvate"
_symmetry_cell_setting           triclinic
_symmetry_space_group_name_H-M   'P -1'
_symmetry_Int_Tables_number      2
_space_group_name_Hall           '-P 1'
loop_
_symmetry_equiv_pos_site_id
_symmetry_equiv_pos_as_xyz
1 x,y,z
2 -x,-y,-z
_cell_length_a                   15.199(3)
_cell_length_b                   15.322(3)
_cell_length_c                   16.472(4)
_cell_angle_alpha                116.330(3)
_cell_angle_beta                 93.430(3)
_cell_angle_gamma                102.116(3)
_cell_volume                     3309.85
_exptl_crystal_colour            violet
_exptl_crystal_description       prism
_cell_formula_units_Z            1
loop_
_atom_site_label
_atom_site_type_symbol
_atom_site_fract_x
_atom_site_fract_y
_atom_site_fract_z
Ba1 Ba -0.05623(2) 0.11781(2) 0.63834(2)
Co1 Co 0.26314(3) 0.21754(3) 0.63888(3)
Co2 Co -0.15687(3) 0.29528(3) 0.84381(3)
S1 S 0.12122(5) 0.18291(6) 0.49312(6)
S2 S 0.32795(6) 0.36216(7) 0.84981(6)
S3 S 0.16359(5) -0.00227(7) 0.61016(6)
S4 S -0.31682(5) 0.12944(6) 0.69115(6)
S5 S -0.06318(6) 0.41390(6) 0.74842(6)
S6 S -0.06776(6) 0.16744(7) 0.90190(6)
O1 O 0.10859(19) 0.0817(2) 0.4211(2)
O2 O 0.08164(19) 0.1957(2) 0.5753(2)
O3 O 0.3685(2) 0.4685(2) 0.90905(19)
O4 O 0.23028(18) 0.3246(2) 0.84199(19)
O5 O 0.09121(18) 0.0471(3) 0.6323(3)
O6 O 0.1427(2) -0.0960(2) 0.52396(19)
O7 O -0.23395(16) 0.10268(19) 0.65819(17)
O8 O -0.37920(18) 0.1393(2) 0.62836(18)
O9 O 0.01659(19) 0.4962(2) 0.7717(2)
O10 O -0.05241(19) 0.31237(19) 0.69644(18)
O11 O -0.04515(19) 0.1429(2) 0.81073(17)
O12 O -0.1332(2) 0.0884(2) 0.9086(2)
N1 N 0.22414(18) 0.2408(2) 0.53263(19)
N2 N 0.38475(18) 0.2056(2) 0.58299(19)
N3 N 0.34585(18) 0.3265(2) 0.74793(19)
N4 N 0.25028(18) 0.0772(2) 0.6136(2)
N5 N -0.28353(19) 0.2249(2) 0.7879(2)
N6 N -0.21122(19) 0.3903(2) 0.95070(19)
N7 N -0.1046(2) 0.4153(2) 0.8335(2)
N8 N -0.0953(2) 0.2702(2) 0.9354(2)
C1 C 0.2891(2) 0.2224(3) 0.4667(3)
H1 H 0.28810 0.26370 0.43610
H2 H 0.27170 0.15210 0.42030
C2 C 0.3847(3) 0.2490(3) 0.5196(3)
H3 H 0.42520 0.22400 0.47640
H4 H 0.40780 0.32190 0.55410
C3 C 0.4620(2) 0.2636(3) 0.6624(3)
H5 H 0.51670 0.28470 0.64110
H6 H 0.47390 0.22040 0.68820
C4 C 0.4409(2) 0.3552(3) 0.7359(2)
H7 H 0.48210 0.38010 0.79330
H8 H 0.44880 0.40840 0.71800
C5 C 0.3844(2) 0.2976(3) 0.8947(2)
C6 C 0.3676(2) 0.1933(3) 0.8435(2)
H9 H 0.32700 0.15890 0.78790
C7 C 0.4109(3) 0.1408(3) 0.8750(3)
H10 H 0.39950 0.07110 0.84030
C8 C 0.4719(3) 0.1916(3) 0.9589(3)
C9 C 0.4879(3) 0.2960(3) 1.0093(3)
H11 H 0.52810 0.33060 1.06520
C10 C 0.4448(3) 0.3493(3) 0.9777(3)
H12 H 0.45640 0.41900 1.01180
C11 C 0.5213(4) 0.1330(4) 0.9907(4)
H13 H 0.47930 0.09410 1.01130
H14 H 0.57050 0.17920 1.04040
H15 H 0.54530 0.08850 0.94060
C12 C 0.3809(3) 0.0964(3) 0.5362(3)
H16 H 0.44260 0.08860 0.53460
H17 H 0.34950 0.06610 0.47320
C13 C 0.3321(2) 0.0418(3) 0.5844(3)
H18 H 0.31390 -0.03030 0.54320
H19 H 0.37320 0.05380 0.63790
C14 C 0.1854(2) -0.0357(2) 0.6975(2)
C15 C 0.2307(2) -0.1094(3) 0.6832(3)
H20 H 0.24570 -0.14580 0.62600
C16 C 0.2535(3) -0.1281(3) 0.7567(3)
H21 H 0.28480 -0.17670 0.74820
C17 C 0.2301(3) -0.0752(4) 0.8420(3)
C18 C 0.1825(3) -0.0036(3) 0.8530(3)
H22 H 0.16500 0.03110 0.90930
C19 C 0.1608(3) 0.0169(3) 0.7823(3)
H23 H 0.12980 0.06580 0.79120
C20 C 0.2589(4) -0.0921(5) 0.9219(4)
H24 H 0.27230 -0.15650 0.89920
H25 H 0.21030 -0.09080 0.95670
H26 H 0.31240 -0.03980 0.96060
C21 C 0.0635(2) 0.2411(3) 0.4437(2)
C22 C 0.0278(3) 0.3185(3) 0.5019(3)
H27 H 0.03920 0.34220 0.56520
C23 C -0.0249(3) 0.3596(3) 0.4647(3)
H28 H -0.04890 0.41110 0.50340
C24 C -0.0427(2) 0.3252(3) 0.3698(3)
C25 C -0.0054(3) 0.2486(3) 0.3134(3)
H29 H -0.01590 0.22560 0.25010
C26 C 0.0471(3) 0.2058(3) 0.3494(3)
H30 H 0.07100 0.15420 0.31080
C27 C -0.1027(3) 0.3687(4) 0.3306(4)
H31 H -0.15730 0.37030 0.35700
H32 H -0.11860 0.32760 0.26510
H33 H -0.07050 0.43610 0.34460
C28 C -0.3768(2) 0.0291(3) 0.7093(3)
C29 C -0.4663(2) -0.0213(3) 0.6670(3)
H34 H -0.49700 -0.00190 0.62990
C30 C -0.5106(3) -0.1027(4) 0.6812(4)
H35 H -0.57070 -0.13780 0.65230
C31 C -0.4661(4) -0.1310(4) 0.7375(4)
C32 C -0.3773(4) -0.0783(4) 0.7799(4)
H36 H -0.34700 -0.09680 0.81800
C33 C -0.3320(3) 0.0023(3) 0.7669(3)
H37 H -0.27220 0.03770 0.79670
C34 C -0.5129(5) -0.2208(5) 0.7498(6)
H38 H -0.57750 -0.22740 0.74460
H39 H -0.48910 -0.21100 0.80940
H40 H -0.50180 -0.28110 0.70320
C35 C -0.3502(2) 0.2756(3) 0.8370(3)
H41 H -0.40650 0.22630 0.82810
H42 H -0.36390 0.32050 0.81400
C36 C -0.3078(2) 0.3357(3) 0.9388(3)
H43 H -0.34210 0.38360 0.97080
H44 H -0.31070 0.29010 0.96540
C37 C -0.2037(3) 0.4842(3) 0.9420(3)
H45 H -0.20320 0.53970 1.00150
H46 H -0.25640 0.47500 0.89990
C38 C -0.1161(3) 0.5099(3) 0.9062(3)
H47 H -0.12090 0.55620 0.88180
H48 H -0.06390 0.54170 0.95580
C39 C -0.1545(3) 0.4084(3) 1.0358(2)
H49 H -0.18780 0.43070 1.08650
H50 H -0.09900 0.46140 1.05070
C40 C -0.1296(3) 0.3112(3) 1.0233(2)
H51 H -0.08290 0.32630 1.07390
H52 H -0.18290 0.26260 1.02180
C41 C 0.0346(3) 0.1905(3) 0.9741(2)
C42 C 0.1167(3) 0.2421(3) 0.9646(3)
H53 H 0.11790 0.26210 0.91880
C43 C 0.1970(3) 0.2641(4) 1.0229(3)
H54 H 0.25190 0.29800 1.01560
C44 C 0.1956(3) 0.2358(5) 1.0918(4)
C45 C 0.1141(4) 0.1820(6) 1.0997(4)
H55 H 0.11350 0.16140 1.14500
C46 C 0.0323(3) 0.1578(5) 1.0405(4)
H56 H -0.02200 0.12090 1.04570
C47 C 0.2844(4) 0.2650(8) 1.1573(6)
H57 H 0.33010 0.24010 1.12240
H58 H 0.27400 0.23610 1.19810
H59 H 0.30500 0.33720 1.19240
C48 C -0.1414(4) 0.4269(5) 0.6729(5)
C49 C -0.2132(5) 0.3431(5) 0.6160(5)
H60 H -0.21870 0.28190 0.61690
C50 C -0.2764(5) 0.3524(7) 0.5578(5)
H61 H -0.32450 0.29670 0.51960
C51 C -0.2696(6) 0.4430(7) 0.5552(6)
C52 C -0.1973(6) 0.5253(6) 0.6127(6)
H62 H -0.19190 0.58650 0.61180
C53 C -0.1337(5) 0.5186(5) 0.6710(6)
H63 H -0.08590 0.57460 0.70900
C54 C -0.3366(9) 0.4510(11) 0.4871(10)
H64 H -0.33220 0.40570 0.42530
H65 H -0.32180 0.51890 0.49570
H66 H -0.39780 0.43330 0.49750
Ba1A Ba 0.05623(2) -0.11781(2) 0.36166(2)
Co1A Co -0.26314(3) -0.21754(3) 0.36112(3)
Co2A Co 0.15687(3) -0.29528(3) 0.15619(3)
S1A S -0.12122(5) -0.18291(6) 0.50688(6)
S2A S -0.32795(6) -0.36216(7) 0.15019(6)
S3A S -0.16359(5) 0.00227(7) 0.38984(6)
S4A S 0.31682(5) -0.12944(6) 0.30885(6)
S5A S 0.06318(6) -0.41390(6) 0.25158(6)
S6A S 0.06776(6) -0.16744(7) 0.09810(6)
O1A O -0.10859(19) -0.0817(2) 0.5789(2)
O2A O -0.08164(19) -0.1957(2) 0.4247(2)
O3A O -0.3685(2) -0.4685(2) 0.09095(19)
O4A O -0.23028(18) -0.3246(2) 0.15801(19)
O5A O -0.09121(18) -0.0471(3) 0.3677(3)
O6A O -0.1427(2) 0.0960(2) 0.47604(19)
O7A O 0.23395(16) -0.10268(19) 0.34181(17)
O8A O 0.37920(18) -0.1393(2) 0.37164(18)
O9A O -0.01659(19) -0.4962(2) 0.2283(2)
O10A O 0.05241(19) -0.31237(19) 0.30356(18)
O11A O 0.04515(19) -0.1429(2) 0.18927(17)
O12A O 0.1332(2) -0.0884(2) 0.0914(2)
N1A N -0.22414(18) -0.2408(2) 0.46737(19)
N2A N -0.38475(18) -0.2056(2) 0.41701(19)
N3A N -0.34585(18) -0.3265(2) 0.25207(19)
N4A N -0.25028(18) -0.0772(2) 0.3864(2)
N5A N 0.28353(19) -0.2249(2) 0.2121(2)
N6A N 0.21122(19) -0.3903(2) 0.04930(19)
N7A N 0.1046(2) -0.4153(2) 0.1665(2)
N8A N 0.0953(2) -0.2702(2) 0.0646(2)
C1A C -0.2891(2) -0.2224(3) 0.5333(3)
H1A H -0.28810 -0.26370 0.56390
H2A H -0.27170 -0.15210 0.57970
C2A C -0.3847(3) -0.2490(3) 0.4804(3)
H3A H -0.42520 -0.22400 0.52360
H4A H -0.40780 -0.32190 0.44590
C3A C -0.4620(2) -0.2636(3) 0.3376(3)
H5A H -0.51670 -0.28470 0.35890
H6A H -0.47390 -0.22040 0.31180
C4A C -0.4409(2) -0.3552(3) 0.2641(2)
H7A H -0.48210 -0.38010 0.20670
H8A H -0.44880 -0.40840 0.28200
C5A C -0.3844(2) -0.2976(3) 0.1053(2)
C6A C -0.3676(2) -0.1933(3) 0.1565(2)
H9A H -0.32700 -0.15890 0.21210
C7A C -0.4109(3) -0.1408(3) 0.1250(3)
H10A H -0.39950 -0.07110 0.15970
C8A C -0.4719(3) -0.1916(3) 0.0411(3)
C9A C -0.4879(3) -0.2960(3) -0.0093(3)
H11A H -0.52810 -0.33060 -0.06520
C10A C -0.4448(3) -0.3493(3) 0.0223(3)
H12A H -0.45640 -0.41900 -0.01180
C11A C -0.5213(4) -0.1330(4) 0.0093(4)
H13A H -0.47930 -0.09410 -0.01130
H14A H -0.57050 -0.17920 -0.04040
H15A H -0.54530 -0.08850 0.05940
C12A C -0.3809(3) -0.0964(3) 0.4638(3)
H16A H -0.44260 -0.08860 0.46540
H17A H -0.34950 -0.06610 0.52680
C13A C -0.3321(2) -0.0418(3) 0.4156(3)
H18A H -0.31390 0.03030 0.45680
H19A H -0.37320 -0.05380 0.36210
C14A C -0.1854(2) 0.0357(2) 0.3025(2)
C15A C -0.2307(2) 0.1094(3) 0.3168(3)
H20A H -0.24570 0.14580 0.37400
C16A C -0.2535(3) 0.1281(3) 0.2433(3)
H21A H -0.28480 0.17670 0.25180
C17A C -0.2301(3) 0.0752(4) 0.1580(3)
C18A C -0.1825(3) 0.0036(3) 0.1470(3)
H22A H -0.16500 -0.03110 0.09070
C19A C -0.1608(3) -0.0169(3) 0.2177(3)
H23A H -0.12980 -0.06580 0.20880
C20A C -0.2589(4) 0.0921(5) 0.0781(4)
H24A H -0.27230 0.15650 0.10080
H25A H -0.21030 0.09080 0.04330
H26A H -0.31240 0.03980 0.03940
C21A C -0.0635(2) -0.2411(3) 0.5563(2)
C22A C -0.0278(3) -0.3185(3) 0.4981(3)
H27A H -0.03920 -0.34220 0.43480
C23A C 0.0249(3) -0.3596(3) 0.5353(3)
H28A H 0.04890 -0.41110 0.49660
C24A C 0.0427(2) -0.3252(3) 0.6302(3)
C25A C 0.0054(3) -0.2486(3) 0.6866(3)
H29A H 0.01590 -0.22560 0.74990
C26A C -0.0471(3) -0.2058(3) 0.6506(3)
H30A H -0.07100 -0.15420 0.68920
C27A C 0.1027(3) -0.3687(4) 0.6694(4)
H31A H 0.15730 -0.37030 0.64300
H32A H 0.11860 -0.32760 0.73490
H33A H 0.07050 -0.43610 0.65540
C28A C 0.3768(2) -0.0291(3) 0.2907(3)
C29A C 0.4663(2) 0.0213(3) 0.3330(3)
H34A H 0.49700 0.00190 0.37010
C30A C 0.5106(3) 0.1027(4) 0.3188(4)
H35A H 0.57070 0.13780 0.34770
C31A C 0.4661(4) 0.1310(4) 0.2625(4)
C32A C 0.3773(4) 0.0783(4) 0.2201(4)
H36A H 0.34700 0.09680 0.18200
C33A C 0.3320(3) -0.0023(3) 0.2331(3)
H37A H 0.27220 -0.03770 0.20330
C34A C 0.5129(5) 0.2208(5) 0.2502(6)
H38A H 0.57750 0.22740 0.25540
H39A H 0.48910 0.21100 0.19060
H40A H 0.50180 0.28110 0.29680
C35A C 0.3502(2) -0.2756(3) 0.1630(3)
H41A H 0.40650 -0.22630 0.17190
H42A H 0.36390 -0.32050 0.18600
C36A C 0.3078(2) -0.3357(3) 0.0612(3)
H43A H 0.34210 -0.38360 0.02920
H44A H 0.31070 -0.29010 0.03460
C37A C 0.2037(3) -0.4842(3) 0.0580(3)
H45A H 0.20320 -0.53970 -0.00150
H46A H 0.25640 -0.47500 0.10010
C38A C 0.1161(3) -0.5099(3) 0.0938(3)
H47A H 0.12090 -0.55620 0.11820
H48A H 0.06390 -0.54170 0.04420
C39A C 0.1545(3) -0.4084(3) -0.0358(2)
H49A H 0.18780 -0.43070 -0.08650
H50A H 0.09900 -0.46140 -0.05070
C40A C 0.1296(3) -0.3112(3) -0.0233(2)
H51A H 0.08290 -0.32630 -0.07390
H52A H 0.18290 -0.26260 -0.02180
C41A C -0.0346(3) -0.1905(3) 0.0259(2)
C42A C -0.1167(3) -0.2421(3) 0.0354(3)
H53A H -0.11790 -0.26210 0.08120
C43A C -0.1970(3) -0.2641(4) -0.0229(3)
H54A H -0.25190 -0.29800 -0.01560
C44A C -0.1956(3) -0.2358(5) -0.0918(4)
C45A C -0.1141(4) -0.1820(6) -0.0997(4)
H55A H -0.11350 -0.16140 -0.14500
C46A C -0.0323(3) -0.1578(5) -0.0405(4)
H56A H 0.02200 -0.12090 -0.04570
C47A C -0.2844(4) -0.2650(8) -0.1573(6)
H57A H -0.33010 -0.24010 -0.12240
H58A H -0.27400 -0.23610 -0.19810
H59A H -0.30500 -0.33720 -0.19240
C48A C 0.1414(4) -0.4269(5) 0.3271(5)
C49A C 0.2132(5) -0.3431(5) 0.3840(5)
H60A H 0.21870 -0.28190 0.38310
C50A C 0.2764(5) -0.3524(7) 0.4422(5)
H61A H 0.32450 -0.29670 0.48040
C51A C 0.2696(6) -0.4430(7) 0.4448(6)
C52A C 0.1973(6) -0.5253(6) 0.3873(6)
H62A H 0.19190 -0.58650 0.38820
C53A C 0.1337(5) -0.5186(5) 0.3290(6)
H63A H 0.08590 -0.57460 0.29100
C54A C 0.3366(9) -0.4510(11) 0.5129(10)
H64A H 0.33220 -0.40570 0.57470
H65A H 0.32180 -0.51890 0.50430
H66A H 0.39780 -0.43330 0.50250
loop_
_geom_bond_atom_site_label_1
_geom_bond_atom_site_label_2
_geom_bond_site_symmetry_1
_geom_bond_site_symmetry_2
Ba1 O2 1_555 1_555
Ba1 O5 1_555 1_555
Ba1 O7 1_555 1_555
Ba1 O10 1_555 1_555
Ba1 O11 1_555 1_555
Ba1 O1A 1_555 1_555
Ba1 O6A 1_555 1_555
Co1 N1 1_555 1_555
Co1 N2 1_555 1_555
Co1 N3 1_555 1_555
Co1 N4 1_555 1_555
Co2 N5 1_555 1_555
Co2 N6 1_555 1_555
Co2 N7 1_555 1_555
Co2 N8 1_555 1_555
S1 O1 1_555 1_555
S1 O2 1_555 1_555
S1 N1 1_555 1_555
S1 C21 1_555 1_555
S2 O3 1_555 1_555
S2 O4 1_555 1_555
S2 N3 1_555 1_555
S2 C5 1_555 1_555
S3 O5 1_555 1_555
S3 O6 1_555 1_555
S3 N4 1_555 1_555
S3 C14 1_555 1_555
S4 O7 1_555 1_555
S4 O8 1_555 1_555
S4 N5 1_555 1_555
S4 C28 1_555 1_555
S5 O9 1_555 1_555
S5 O10 1_555 1_555
S5 N7 1_555 1_555
S5 C48 1_555 1_555
S6 O11 1_555 1_555
S6 O12 1_555 1_555
S6 N8 1_555 1_555
S6 C41 1_555 1_555
O1 Ba1A 1_555 1_555
O6 Ba1A 1_555 1_555
N1 C1 1_555 1_555
N2 C2 1_555 1_555
N2 C3 1_555 1_555
N2 C12 1_555 1_555
N3 C4 1_555 1_555
N4 C13 1_555 1_555
N5 C35 1_555 1_555
N6 C36 1_555 1_555
N6 C37 1_555 1_555
N6 C39 1_555 1_555
N7 C38 1_555 1_555
N8 C40 1_555 1_555
C1 H1 1_555 1_555
C1 H2 1_555 1_555
C1 C2 1_555 1_555
C2 H3 1_555 1_555
C2 H4 1_555 1_555
C3 H5 1_555 1_555
C3 H6 1_555 1_555
C3 C4 1_555 1_555
C4 H7 1_555 1_555
C4 H8 1_555 1_555
C5 C6 1_555 1_555
C5 C10 1_555 1_555
C6 H9 1_555 1_555
C6 C7 1_555 1_555
C7 H10 1_555 1_555
C7 C8 1_555 1_555
C8 C9 1_555 1_555
C8 C11 1_555 1_555
C9 H11 1_555 1_555
C9 C10 1_555 1_555
C10 H12 1_555 1_555
C11 H13 1_555 1_555
C11 H14 1_555 1_555
C11 H15 1_555 1_555
C12 H16 1_555 1_555
C12 H17 1_555 1_555
C12 C13 1_555 1_555
C13 H18 1_555 1_555
C13 H19 1_555 1_555
C14 C15 1_555 1_555
C14 C19 1_555 1_555
C15 H20 1_555 1_555
C15 C16 1_555 1_555
C16 H21 1_555 1_555
C16 C17 1_555 1_555
C17 C18 1_555 1_555
C17 C20 1_555 1_555
C18 H22 1_555 1_555
C18 C19 1_555 1_555
C19 H23 1_555 1_555
C20 H24 1_555 1_555
C20 H25 1_555 1_555
C20 H26 1_555 1_555
C21 C22 1_555 1_555
C21 C26 1_555 1_555
C22 H27 1_555 1_555
C22 C23 1_555 1_555
C23 H28 1_555 1_555
C23 C24 1_555 1_555
C24 C25 1_555 1_555
C24 C27 1_555 1_555
C25 H29 1_555 1_555
C25 C26 1_555 1_555
C26 H30 1_555 1_555
C27 H31 1_555 1_555
C27 H32 1_555 1_555
C27 H33 1_555 1_555
C28 C29 1_555 1_555
C28 C33 1_555 1_555
C29 H34 1_555 1_555
C29 C30 1_555 1_555
C30 H35 1_555 1_555
C30 C31 1_555 1_555
C31 C32 1_555 1_555
C31 C34 1_555 1_555
C32 H36 1_555 1_555
C32 C33 1_555 1_555
C33 H37 1_555 1_555
C34 H38 1_555 1_555
C34 H39 1_555 1_555
C34 H40 1_555 1_555
C35 H41 1_555 1_555
C35 H42 1_555 1_555
C35 C36 1_555 1_555
C36 H43 1_555 1_555
C36 H44 1_555 1_555
C37 H45 1_555 1_555
C37 H46 1_555 1_555
C37 C38 1_555 1_555
C38 H47 1_555 1_555
C38 H48 1_555 1_555
C39 H49 1_555 1_555
C39 H50 1_555 1_555
C39 C40 1_555 1_555
C40 H51 1_555 1_555
C40 H52 1_555 1_555
C41 C42 1_555 1_555
C41 C46 1_555 1_555
C42 H53 1_555 1_555
C42 C43 1_555 1_555
C43 H54 1_555 1_555
C43 C44 1_555 1_555
C44 C45 1_555 1_555
C44 C47 1_555 1_555
C45 H55 1_555 1_555
C45 C46 1_555 1_555
C46 H56 1_555 1_555
C47 H57 1_555 1_555
C47 H58 1_555 1_555
C47 H59 1_555 1_555
C48 C49 1_555 1_555
C48 C53 1_555 1_555
C49 H60 1_555 1_555
C49 C50 1_555 1_555
C50 H61 1_555 1_555
C50 C51 1_555 1_555
C51 C52 1_555 1_555
C51 C54 1_555 1_555
C52 H62 1_555 1_555
C52 C53 1_555 1_555
C53 H63 1_555 1_555
C54 H64 1_555 1_555
C54 H65 1_555 1_555
C54 H66 1_555 1_555
Ba1A O2A 1_555 1_555
Ba1A O5A 1_555 1_555
Ba1A O7A 1_555 1_555
Ba1A O10A 1_555 1_555
Ba1A O11A 1_555 1_555
Co1A N1A 1_555 1_555
Co1A N2A 1_555 1_555
Co1A N3A 1_555 1_555
Co1A N4A 1_555 1_555
Co2A N5A 1_555 1_555
Co2A N6A 1_555 1_555
Co2A N7A 1_555 1_555
Co2A N8A 1_555 1_555
S1A O1A 1_555 1_555
S1A O2A 1_555 1_555
S1A N1A 1_555 1_555
S1A C21A 1_555 1_555
S2A O3A 1_555 1_555
S2A O4A 1_555 1_555
S2A N3A 1_555 1_555
S2A C5A 1_555 1_555
S3A O5A 1_555 1_555
S3A O6A 1_555 1_555
S3A N4A 1_555 1_555
S3A C14A 1_555 1_555
S4A O7A 1_555 1_555
S4A O8A 1_555 1_555
S4A N5A 1_555 1_555
S4A C28A 1_555 1_555
S5A O9A 1_555 1_555
S5A O10A 1_555 1_555
S5A N7A 1_555 1_555
S5A C48A 1_555 1_555
S6A O11A 1_555 1_555
S6A O12A 1_555 1_555
S6A N8A 1_555 1_555
S6A C41A 1_555 1_555
N1A C1A 1_555 1_555
N2A C2A 1_555 1_555
N2A C3A 1_555 1_555
N2A C12A 1_555 1_555
N3A C4A 1_555 1_555
N4A C13A 1_555 1_555
N5A C35A 1_555 1_555
N6A C36A 1_555 1_555
N6A C37A 1_555 1_555
N6A C39A 1_555 1_555
N7A C38A 1_555 1_555
N8A C40A 1_555 1_555
C1A H1A 1_555 1_555
C1A H2A 1_555 1_555
C1A C2A 1_555 1_555
C2A H3A 1_555 1_555
C2A H4A 1_555 1_555
C3A H5A 1_555 1_555
C3A H6A 1_555 1_555
C3A C4A 1_555 1_555
C4A H7A 1_555 1_555
C4A H8A 1_555 1_555
C5A C6A 1_555 1_555
C5A C10A 1_555 1_555
C6A H9A 1_555 1_555
C6A C7A 1_555 1_555
C7A H10A 1_555 1_555
C7A C8A 1_555 1_555
C8A C9A 1_555 1_555
C8A C11A 1_555 1_555
C9A H11A 1_555 1_555
C9A C10A 1_555 1_555
C10A H12A 1_555 1_555
C11A H13A 1_555 1_555
C11A H14A 1_555 1_555
C11A H15A 1_555 1_555
C12A H16A 1_555 1_555
C12A H17A 1_555 1_555
C12A C13A 1_555 1_555
C13A H18A 1_555 1_555
C13A H19A 1_555 1_555
C14A C15A 1_555 1_555
C14A C19A 1_555 1_555
C15A H20A 1_555 1_555
C15A C16A 1_555 1_555
C16A H21A 1_555 1_555
C16A C17A 1_555 1_555
C17A C18A 1_555 1_555
C17A C20A 1_555 1_555
C18A H22A 1_555 1_555
C18A C19A 1_555 1_555
C19A H23A 1_555 1_555
C20A H24A 1_555 1_555
C20A H25A 1_555 1_555
C20A H26A 1_555 1_555
C21A C22A 1_555 1_555
C21A C26A 1_555 1_555
C22A H27A 1_555 1_555
C22A C23A 1_555 1_555
C23A H28A 1_555 1_555
C23A C24A 1_555 1_555
C24A C25A 1_555 1_555
C24A C27A 1_555 1_555
C25A H29A 1_555 1_555
C25A C26A 1_555 1_555
C26A H30A 1_555 1_555
C27A H31A 1_555 1_555
C27A H32A 1_555 1_555
C27A H33A 1_555 1_555
C28A C29A 1_555 1_555
C28A C33A 1_555 1_555
C29A H34A 1_555 1_555
C29A C30A 1_555 1_555
C30A H35A 1_555 1_555
C30A C31A 1_555 1_555
C31A C32A 1_555 1_555
C31A C34A 1_555 1_555
C32A H36A 1_555 1_555
C32A C33A 1_555 1_555
C33A H37A 1_555 1_555
C34A H38A 1_555 1_555
C34A H39A 1_555 1_555
C34A H40A 1_555 1_555
C35A H41A 1_555 1_555
C35A H42A 1_555 1_555
C35A C36A 1_555 1_555
C36A H43A 1_555 1_555
C36A H44A 1_555 1_555
C37A H45A 1_555 1_555
C37A H46A 1_555 1_555
C37A C38A 1_555 1_555
C38A H47A 1_555 1_555
C38A H48A 1_555 1_555
C39A H49A 1_555 1_555
C39A H50A 1_555 1_555
C39A C40A 1_555 1_555
C40A H51A 1_555 1_555
C40A H52A 1_555 1_555
C41A C42A 1_555 1_555
C41A C46A 1_555 1_555
C42A H53A 1_555 1_555
C42A C43A 1_555 1_555
C43A H54A 1_555 1_555
C43A C44A 1_555 1_555
C44A C45A 1_555 1_555
C44A C47A 1_555 1_555
C45A H55A 1_555 1_555
C45A C46A 1_555 1_555
C46A H56A 1_555 1_555
C47A H57A 1_555 1_555
C47A H58A 1_555 1_555
C47A H59A 1_555 1_555
C48A C49A 1_555 1_555
C48A C53A 1_555 1_555
C49A H60A 1_555 1_555
C49A C50A 1_555 1_555
C50A H61A 1_555 1_555
C50A C51A 1_555 1_555
C51A C52A 1_555 1_555
C51A C54A 1_555 1_555
C52A H62A 1_555 1_555
C52A C53A 1_555 1_555
C53A H63A 1_555 1_555
C54A H64A 1_555 1_555
C54A H65A 1_555 1_555
C54A H66A 1_555 1_555

#END
