
#######################################################################
#
#                 Cambridge Crystallographic Data Centre
#                                CCDC 
#
#######################################################################
#
# If this CIF has been generated from an entry in the Cambridge 
# Structural Database, then it will include bibliographic, chemical, 
# crystal, experimental, refinement or atomic coordinate data resulting 
# from the CCDC's data processing and validation procedures.
#
#######################################################################

data_BIMBEF
_chemical_formula_moiety         'C64 H68 Ga4 N16 O12,4.4(H2 O1)'
_chemical_name_systematic        
'tetrakis((\m~2~-N-(2-(4-Imidazolyl)ethyl)pyridine-2-carboxamide)-(acetylacetonato)-gallium(iii)) hydrate'
_symmetry_cell_setting           tetragonal
_symmetry_space_group_name_H-M   'I 41/a'
_symmetry_Int_Tables_number      88
_space_group_name_Hall           '-I 4ad'
loop_
_symmetry_equiv_pos_site_id
_symmetry_equiv_pos_as_xyz
1 x,y,z
2 3/4-y,1/4+x,1/4+z
3 1/2+x,1/2+y,1/2+z
4 1/4-y,3/4+x,3/4+z
5 1/4+y,1/4-x,1/4+z
6 1/2-x,-y,1/2+z
7 3/4+y,3/4-x,3/4+z
8 -x,1/2-y,z
9 -x,-y,-z
10 1/4+y,3/4-x,3/4-z
11 1/2-x,1/2-y,1/2-z
12 3/4+y,1/4-x,1/4-z
13 3/4-y,3/4+x,3/4-z
14 1/2+x,y,1/2-z
15 1/4-y,1/4+x,1/4-z
16 x,1/2+y,-z
_cell_length_a                   22.71(1)
_cell_length_b                   22.71(1)
_cell_length_c                   16.316(7)
_cell_angle_alpha                90
_cell_angle_beta                 90
_cell_angle_gamma                90
_cell_volume                     8414.88
_exptl_crystal_colour            colorless
_exptl_crystal_description       parallelepiped
_cell_formula_units_Z            4
loop_
_atom_site_label
_atom_site_type_symbol
_atom_site_fract_x
_atom_site_fract_y
_atom_site_fract_z
Ga1 Ga 0.46320(2) 0.42242(2) 0.31144(3)
O1 O 0.40430(16) 0.46980(16) 0.2432(2)
O2 O 0.42550(15) 0.45592(15) 0.4103(2)
N1 N 0.52228(16) 0.38624(17) 0.3917(2)
N2 N 0.41178(16) 0.35123(16) 0.3118(3)
N3 N 0.50595(18) 0.39738(17) 0.2108(2)
N4 N 0.52028(18) 0.49525(18) 0.2953(3)
O3 O 0.5835(2) 0.42080(19) 0.1278(3)
C1 C 0.5751(2) 0.3639(2) 0.3738(3)
C2 C 0.4058(2) 0.3125(2) 0.2472(3)
C3 C 0.5146(2) 0.3737(2) 0.4732(3)
C4 C 0.4309(3) 0.3257(3) 0.1659(3)
C5 C 0.4961(3) 0.3418(2) 0.1681(4)
C6 C 0.5500(2) 0.4301(2) 0.1850(3)
C7 C 0.5578(2) 0.4865(2) 0.2335(3)
C8 C 0.6011(3) 0.5263(3) 0.2161(5)
C9 C 0.6052(4) 0.5771(3) 0.2629(5)
C10 C 0.5668(3) 0.5858(3) 0.3242(5)
C11 C 0.5242(3) 0.5447(2) 0.3401(4)
C12 C 0.3694(2) 0.5091(2) 0.2683(4)
C13 C 0.3591(3) 0.5218(3) 0.3501(5)
C14 C 0.3847(2) 0.4941(2) 0.4155(4)
C15 C 0.3371(3) 0.5427(3) 0.2026(5)
H1 H 0.34420 0.52460 0.15030
H2 H 0.35090 0.58260 0.20150
H3 H 0.29570 0.54220 0.21400
C16 C 0.3665(3) 0.5085(3) 0.5019(4)
H4 H 0.40040 0.52020 0.53290
H5 H 0.34900 0.47430 0.52670
H6 H 0.33830 0.54000 0.50120
H7 H 0.5910(19) 0.3635(19) 0.321(3)
H8 H 0.4823(19) 0.3829(19) 0.498(3)
H9 H 0.421(2) 0.295(2) 0.124(3)
H10 H 0.409(2) 0.353(3) 0.140(3)
H11 H 0.510(2) 0.345(2) 0.112(4)
H12 H 0.517(2) 0.311(3) 0.203(4)
H13 H 0.618(3) 0.523(3) 0.174(5)
H14 H 0.633(3) 0.600(3) 0.255(4)
H15 H 0.567(3) 0.618(3) 0.355(4)
H16 H 0.493(3) 0.550(3) 0.386(4)
H17 H 0.336(3) 0.553(3) 0.359(4)
N2I N 0.60123(16) 0.33822(16) 0.4382(3)
Ga1I Ga 0.67242(2) 0.28680(2) 0.43856(3)
O1I O 0.71980(16) 0.34570(16) 0.5068(2)
C12I C 0.7591(2) 0.3806(2) 0.4817(4)
C13I C 0.7718(3) 0.3909(3) 0.3999(5)
C14I C 0.7441(2) 0.3653(2) 0.3345(4)
O2I O 0.70592(15) 0.32450(15) 0.3397(2)
N1I N 0.63624(16) 0.22772(17) 0.3583(2)
C1I C 0.6139(2) 0.1749(2) 0.3762(3)
N2G N 0.58822(16) 0.14877(16) 0.3118(3)
Ga1G Ga 0.53680(2) 0.07758(2) 0.31144(3)
O1G O 0.59570(16) 0.03020(16) 0.2432(2)
C12G C 0.6306(2) -0.0091(2) 0.2683(4)
C13G C 0.6409(3) -0.0218(3) 0.3501(5)
C14G C 0.6153(2) 0.0059(2) 0.4155(4)
O2G O 0.57450(15) 0.04408(15) 0.4103(2)
N1G N 0.47772(16) 0.11376(17) 0.3917(2)
C1G C 0.4249(2) 0.1361(2) 0.3738(3)
N2L N 0.39877(16) 0.16178(16) 0.4382(3)
Ga1L Ga 0.32758(2) 0.21320(2) 0.43856(3)
O1L O 0.28020(16) 0.15430(16) 0.5068(2)
C12L C 0.2409(2) 0.1194(2) 0.4817(4)
C13L C 0.2282(3) 0.1091(3) 0.3999(5)
C14L C 0.2559(2) 0.1347(2) 0.3345(4)
O2L O 0.29408(15) 0.17550(15) 0.3397(2)
N1L N 0.36376(16) 0.27228(17) 0.3583(2)
C1L C 0.3861(2) 0.3251(2) 0.3762(3)
C3L C 0.3763(2) 0.2646(2) 0.2768(3)
H8L H 0.3671(19) 0.2323(19) 0.252(3)
H7L H 0.3865(19) 0.3410(19) 0.429(3)
N3L N 0.35262(18) 0.25595(17) 0.5392(2)
C5L C 0.4082(3) 0.2461(2) 0.5819(4)
C4L C 0.4243(3) 0.1809(3) 0.5841(3)
C2L C 0.4375(2) 0.1558(2) 0.5028(3)
C3G C 0.4854(2) 0.1263(2) 0.4732(3)
H8G H 0.5177(19) 0.1171(19) 0.498(3)
H9L H 0.455(2) 0.171(2) 0.626(3)
H10L H 0.397(2) 0.159(3) 0.610(3)
H11L H 0.405(2) 0.260(2) 0.638(4)
H12L H 0.439(2) 0.267(3) 0.547(4)
C6L C 0.3199(2) 0.3000(2) 0.5650(3)
O3L O 0.3292(2) 0.33350(19) 0.6222(3)
C7L C 0.2635(2) 0.3078(2) 0.5165(3)
N4L N 0.25475(18) 0.27028(18) 0.4547(3)
C11L C 0.2053(3) 0.2742(2) 0.4099(4)
C10L C 0.1642(3) 0.3168(3) 0.4258(5)
C9L C 0.1729(4) 0.3552(3) 0.4871(5)
C8L C 0.2237(3) 0.3511(3) 0.5339(5)
H13L H 0.227(3) 0.368(3) 0.576(5)
H14L H 0.150(3) 0.383(3) 0.495(4)
H15L H 0.132(3) 0.317(3) 0.395(4)
H16L H 0.200(3) 0.243(3) 0.364(4)
C16L C 0.2415(3) 0.1165(3) 0.2481(4)
H4L H 0.22980 0.15040 0.21710
H5L H 0.27570 0.09900 0.22330
H6L H 0.21000 0.08830 0.24880
H17L H 0.197(3) 0.086(3) 0.391(4)
C15L C 0.2073(3) 0.0871(3) 0.5474(5)
H1L H 0.22540 0.09420 0.59970
H2L H 0.16740 0.10090 0.54850
H3L H 0.20780 0.04570 0.53600
H7G H 0.4090(19) 0.1365(19) 0.321(3)
N3G N 0.49405(18) 0.10262(17) 0.2108(2)
C5G C 0.5039(3) 0.1582(2) 0.1681(4)
C4G C 0.5691(3) 0.1743(3) 0.1659(3)
C2G C 0.5942(2) 0.1875(2) 0.2472(3)
C3I C 0.6237(2) 0.2354(2) 0.2768(3)
H8I H 0.6329(19) 0.2677(19) 0.252(3)
H9G H 0.579(2) 0.205(2) 0.124(3)
H10G H 0.591(2) 0.147(3) 0.140(3)
H11G H 0.490(2) 0.155(2) 0.112(4)
H12G H 0.483(2) 0.189(3) 0.203(4)
C6G C 0.4500(2) 0.0699(2) 0.1850(3)
O3G O 0.4165(2) 0.07920(19) 0.1278(3)
C7G C 0.4422(2) 0.0135(2) 0.2335(3)
N4G N 0.47972(18) 0.00475(18) 0.2953(3)
C11G C 0.4758(3) -0.0447(2) 0.3401(4)
C10G C 0.4332(3) -0.0858(3) 0.3242(5)
C9G C 0.3948(4) -0.0771(3) 0.2629(5)
C8G C 0.3989(3) -0.0263(3) 0.2161(5)
H13G H 0.382(3) -0.023(3) 0.174(5)
H14G H 0.367(3) -0.100(3) 0.255(4)
H15G H 0.433(3) -0.118(3) 0.355(4)
H16G H 0.507(3) -0.050(3) 0.386(4)
C16G C 0.6335(3) -0.0085(3) 0.5019(4)
H4G H 0.59960 -0.02020 0.53290
H5G H 0.65100 0.02570 0.52670
H6G H 0.66170 -0.04000 0.50120
H17G H 0.664(3) -0.053(3) 0.359(4)
C15G C 0.6629(3) -0.0427(3) 0.2026(5)
H1G H 0.65580 -0.02460 0.15030
H2G H 0.64910 -0.08260 0.20150
H3G H 0.70430 -0.04220 0.21400
H7I H 0.6135(19) 0.1590(19) 0.429(3)
N3I N 0.64738(18) 0.24405(17) 0.5392(2)
C5I C 0.5918(3) 0.2539(2) 0.5819(4)
C4I C 0.5757(3) 0.3191(3) 0.5841(3)
C2I C 0.5625(2) 0.3442(2) 0.5028(3)
H9I H 0.545(2) 0.329(2) 0.626(3)
H10I H 0.603(2) 0.341(3) 0.610(3)
H11I H 0.595(2) 0.240(2) 0.638(4)
H12I H 0.561(2) 0.233(3) 0.547(4)
C6I C 0.6801(2) 0.2000(2) 0.5650(3)
O3I O 0.6708(2) 0.16650(19) 0.6222(3)
C7I C 0.7365(2) 0.1922(2) 0.5165(3)
N4I N 0.74525(18) 0.22972(18) 0.4547(3)
C11I C 0.7947(3) 0.2258(2) 0.4099(4)
C10I C 0.8358(3) 0.1832(3) 0.4258(5)
C9I C 0.8271(4) 0.1448(3) 0.4871(5)
C8I C 0.7763(3) 0.1489(3) 0.5339(5)
H13I H 0.773(3) 0.132(3) 0.576(5)
H14I H 0.850(3) 0.117(3) 0.495(4)
H15I H 0.868(3) 0.183(3) 0.395(4)
H16I H 0.800(3) 0.257(3) 0.364(4)
C16I C 0.7585(3) 0.3835(3) 0.2481(4)
H4I H 0.77020 0.34960 0.21710
H5I H 0.72430 0.40100 0.22330
H6I H 0.79000 0.41170 0.24880
H17I H 0.803(3) 0.414(3) 0.391(4)
C15I C 0.7927(3) 0.4129(3) 0.5474(5)
H1I H 0.77460 0.40580 0.59970
H2I H 0.83260 0.39910 0.54850
H3I H 0.79220 0.45430 0.53600
loop_
_geom_bond_atom_site_label_1
_geom_bond_atom_site_label_2
_geom_bond_site_symmetry_1
_geom_bond_site_symmetry_2
Ga1 O1 1_555 1_555
Ga1 O2 1_555 1_555
Ga1 N1 1_555 1_555
Ga1 N2 1_555 1_555
Ga1 N3 1_555 1_555
Ga1 N4 1_555 1_555
O1 C12 1_555 1_555
O2 C14 1_555 1_555
N1 C1 1_555 1_555
N1 C3 1_555 1_555
N2 C2 1_555 1_555
N2 C1L 1_555 1_555
N3 C5 1_555 1_555
N3 C6 1_555 1_555
N4 C7 1_555 1_555
N4 C11 1_555 1_555
O3 C6 1_555 1_555
C1 H7 1_555 1_555
C1 N2I 1_555 1_555
C2 C4 1_555 1_555
C2 C3L 1_555 1_555
C3 H8 1_555 1_555
C3 C2I 1_555 1_555
C4 C5 1_555 1_555
C4 H9 1_555 1_555
C4 H10 1_555 1_555
C5 H11 1_555 1_555
C5 H12 1_555 1_555
C6 C7 1_555 1_555
C7 C8 1_555 1_555
C8 C9 1_555 1_555
C8 H13 1_555 1_555
C9 C10 1_555 1_555
C9 H14 1_555 1_555
C10 C11 1_555 1_555
C10 H15 1_555 1_555
C11 H16 1_555 1_555
C12 C13 1_555 1_555
C12 C15 1_555 1_555
C13 C14 1_555 1_555
C13 H17 1_555 1_555
C14 C16 1_555 1_555
C15 H1 1_555 1_555
C15 H2 1_555 1_555
C15 H3 1_555 1_555
C16 H4 1_555 1_555
C16 H5 1_555 1_555
C16 H6 1_555 1_555
N2I Ga1I 1_555 1_555
N2I C2I 1_555 1_555
Ga1I O1I 1_555 1_555
Ga1I O2I 1_555 1_555
Ga1I N1I 1_555 1_555
Ga1I N3I 1_555 1_555
Ga1I N4I 1_555 1_555
O1I C12I 1_555 1_555
C12I C13I 1_555 1_555
C12I C15I 1_555 1_555
C13I C14I 1_555 1_555
C13I H17I 1_555 1_555
C14I O2I 1_555 1_555
C14I C16I 1_555 1_555
N1I C1I 1_555 1_555
N1I C3I 1_555 1_555
C1I N2G 1_555 1_555
C1I H7I 1_555 1_555
N2G Ga1G 1_555 1_555
N2G C2G 1_555 1_555
Ga1G O1G 1_555 1_555
Ga1G O2G 1_555 1_555
Ga1G N1G 1_555 1_555
Ga1G N3G 1_555 1_555
Ga1G N4G 1_555 1_555
O1G C12G 1_555 1_555
C12G C13G 1_555 1_555
C12G C15G 1_555 1_555
C13G C14G 1_555 1_555
C13G H17G 1_555 1_555
C14G O2G 1_555 1_555
C14G C16G 1_555 1_555
N1G C1G 1_555 1_555
N1G C3G 1_555 1_555
C1G N2L 1_555 1_555
C1G H7G 1_555 1_555
N2L Ga1L 1_555 1_555
N2L C2L 1_555 1_555
Ga1L O1L 1_555 1_555
Ga1L O2L 1_555 1_555
Ga1L N1L 1_555 1_555
Ga1L N3L 1_555 1_555
Ga1L N4L 1_555 1_555
O1L C12L 1_555 1_555
C12L C13L 1_555 1_555
C12L C15L 1_555 1_555
C13L C14L 1_555 1_555
C13L H17L 1_555 1_555
C14L O2L 1_555 1_555
C14L C16L 1_555 1_555
N1L C1L 1_555 1_555
N1L C3L 1_555 1_555
C1L H7L 1_555 1_555
C3L H8L 1_555 1_555
N3L C5L 1_555 1_555
N3L C6L 1_555 1_555
C5L C4L 1_555 1_555
C5L H11L 1_555 1_555
C5L H12L 1_555 1_555
C4L C2L 1_555 1_555
C4L H9L 1_555 1_555
C4L H10L 1_555 1_555
C2L C3G 1_555 1_555
C3G H8G 1_555 1_555
C6L O3L 1_555 1_555
C6L C7L 1_555 1_555
C7L N4L 1_555 1_555
C7L C8L 1_555 1_555
N4L C11L 1_555 1_555
C11L C10L 1_555 1_555
C11L H16L 1_555 1_555
C10L C9L 1_555 1_555
C10L H15L 1_555 1_555
C9L C8L 1_555 1_555
C9L H14L 1_555 1_555
C8L H13L 1_555 1_555
C16L H4L 1_555 1_555
C16L H5L 1_555 1_555
C16L H6L 1_555 1_555
C15L H1L 1_555 1_555
C15L H2L 1_555 1_555
C15L H3L 1_555 1_555
N3G C5G 1_555 1_555
N3G C6G 1_555 1_555
C5G C4G 1_555 1_555
C5G H11G 1_555 1_555
C5G H12G 1_555 1_555
C4G C2G 1_555 1_555
C4G H9G 1_555 1_555
C4G H10G 1_555 1_555
C2G C3I 1_555 1_555
C3I H8I 1_555 1_555
C6G O3G 1_555 1_555
C6G C7G 1_555 1_555
C7G N4G 1_555 1_555
C7G C8G 1_555 1_555
N4G C11G 1_555 1_555
C11G C10G 1_555 1_555
C11G H16G 1_555 1_555
C10G C9G 1_555 1_555
C10G H15G 1_555 1_555
C9G C8G 1_555 1_555
C9G H14G 1_555 1_555
C8G H13G 1_555 1_555
C16G H4G 1_555 1_555
C16G H5G 1_555 1_555
C16G H6G 1_555 1_555
C15G H1G 1_555 1_555
C15G H2G 1_555 1_555
C15G H3G 1_555 1_555
N3I C5I 1_555 1_555
N3I C6I 1_555 1_555
C5I C4I 1_555 1_555
C5I H11I 1_555 1_555
C5I H12I 1_555 1_555
C4I C2I 1_555 1_555
C4I H9I 1_555 1_555
C4I H10I 1_555 1_555
C6I O3I 1_555 1_555
C6I C7I 1_555 1_555
C7I N4I 1_555 1_555
C7I C8I 1_555 1_555
N4I C11I 1_555 1_555
C11I C10I 1_555 1_555
C11I H16I 1_555 1_555
C10I C9I 1_555 1_555
C10I H15I 1_555 1_555
C9I C8I 1_555 1_555
C9I H14I 1_555 1_555
C8I H13I 1_555 1_555
C16I H4I 1_555 1_555
C16I H5I 1_555 1_555
C16I H6I 1_555 1_555
C15I H1I 1_555 1_555
C15I H2I 1_555 1_555
C15I H3I 1_555 1_555

#END
