
#######################################################################
#
#                 Cambridge Crystallographic Data Centre
#                                CCDC 
#
#######################################################################
#
# If this CIF has been generated from an entry in the Cambridge 
# Structural Database, then it will include bibliographic, chemical, 
# crystal, experimental, refinement or atomic coordinate data resulting 
# from the CCDC's data processing and validation procedures.
#
#######################################################################

data_CUGKUK
_chemical_formula_moiety         'C48 H56 Mn4 N12 O4 4+,4(Cl1 O4 1-)'
_chemical_name_systematic        
'2,8,14,20,26,32,38,44-Octamethyl-3,7,15,19,27,31,39,43,49,50,51,52-dodeca-azapentacyclo(43.3.1.1^9,13^.1^21,25^.1^33,37^)dopentaconta-1(48),2,7,9,11,13(50),14,19,21,23,25(51),26,31,33,35,37(52),38,43,45(49),46-icosaene-tetra-manganese(ii) tetraperchlorate'
_symmetry_cell_setting           monoclinic
_symmetry_space_group_name_H-M   'C 2/c'
_symmetry_Int_Tables_number      15
_space_group_name_Hall           '-C 2yc'
loop_
_symmetry_equiv_pos_site_id
_symmetry_equiv_pos_as_xyz
1 x,y,z
2 1/2+x,1/2+y,z
3 -x,y,1/2-z
4 1/2-x,1/2+y,1/2-z
5 -x,-y,-z
6 1/2-x,1/2-y,-z
7 x,-y,1/2+z
8 1/2+x,1/2-y,1/2+z
_cell_length_a                   20.276(6)
_cell_length_b                   14.165(6)
_cell_length_c                   20.388(7)
_cell_angle_alpha                90
_cell_angle_beta                 90.59(3)
_cell_angle_gamma                90
_cell_volume                     5855.32
_exptl_crystal_colour            orange-yellow
_cell_formula_units_Z            4
loop_
_atom_site_label
_atom_site_type_symbol
_atom_site_fract_x
_atom_site_fract_y
_atom_site_fract_z
Mn1 Mn 0.5846(2) 0.3858(2) 0.2467(1)
Mn2 Mn 0.4963(2) 0.2264(2) 0.1654(1)
N1 N 0.6521(7) 0.4956(11) 0.1995(7)
N2 N 0.6607(8) 0.3104(12) 0.1817(8)
N3 N 0.5478(8) 0.0800(12) 0.1778(7)
N4 N 0.4511(7) 0.1148(11) 0.0967(6)
N5 N 0.4311(7) 0.2990(11) 0.0885(7)
N6 N 0.5725(8) 0.5313(10) 0.2968(8)
C1 C 0.6481(10) 0.5847(12) 0.2191(10)
C2 C 0.6873(9) 0.6561(4) 0.1921(11)
C3 C 0.7319(10) 0.6248(17) 0.1404(10)
C4 C 0.7358(10) 0.5309(14) 0.1192(9)
C5 C 0.6936(12) 0.4685(17) 0.1525(12)
C6 C 0.6970(12) 0.3597(14) 0.1456(12)
C7 C 0.7494(12) 0.3270(17) 0.0952(11)
C8 C 0.6644(10) 0.2100(13) 0.1837(10)
C9 C 0.6260(9) 0.1735(12) 0.242(1)
C10 C 0.6020(9) 0.0733(14) 0.2247(10)
C11 C 0.5233(9) 0.0043(16) 0.1491(9)
C12 C 0.5460(11) -0.0942(12) 0.1638(9)
C13 C 0.4717(9) 0.0248(13) 0.1025(10)
C14 C 0.4420(11) -0.0442(14) 0.0616(10)
C15 C 0.3955(11) -0.0174(13) 0.0153(10)
C16 C 0.3743(10) 0.0776(14) 0.0104(9)
C17 C 0.4061(12) 0.1402(15) 0.0533(10)
C18 C 0.3991(9) 0.2468(14) 0.0483(9)
C19 C 0.3459(11) 0.2866(16) -0.0037(10)
C20 C 0.4317(9) 0.4039(12) 0.0873(9)
C21 C 0.4895(11) 0.4388(13) 0.1264(9)
C22 C 0.5262(10) 0.5399(15) 0.3508(9)
C23 C 0.6001(9) 0.6032(14) 0.2751(8)
C24 C 0.5937(11) 0.7037(13) 0.2972(11)
O1 O 0.5693(6) 0.2331(9) 0.2531(6)
O2 O 0.5010(6) 0.3781(8) 0.1826(5)
O2B O 0.4990(6) 0.3781(8) 0.3174(5)
O1B O 0.4307(6) 0.2331(9) 0.2469(6)
C22B C 0.4738(10) 0.5399(15) 0.1492(9)
C21B C 0.5105(11) 0.4388(13) 0.3736(9)
Mn2B Mn 0.5037(2) 0.2264(2) 0.3346(1)
Mn1B Mn 0.4154(2) 0.3858(2) 0.2533(1)
C9B C 0.3740(9) 0.1735(12) 0.258(1)
N6B N 0.4275(8) 0.5313(10) 0.2032(8)
C20B C 0.5683(9) 0.4039(12) 0.4127(9)
N3B N 0.4522(8) 0.0800(12) 0.3222(7)
N4B N 0.5489(7) 0.1148(11) 0.4033(6)
N5B N 0.5689(7) 0.2990(11) 0.4115(7)
N1B N 0.3479(7) 0.4956(11) 0.3005(7)
N2B N 0.3393(8) 0.3104(12) 0.3183(8)
C8B C 0.3356(10) 0.2100(13) 0.3163(10)
C10B C 0.3980(9) 0.0733(14) 0.2753(10)
C23B C 0.3999(9) 0.6032(14) 0.2249(8)
C11B C 0.4767(9) 0.0043(16) 0.3509(9)
C13B C 0.5283(9) 0.0248(13) 0.3975(10)
C17B C 0.5939(12) 0.1402(15) 0.4467(10)
C18B C 0.6009(9) 0.2468(14) 0.4517(9)
C1B C 0.3519(10) 0.5847(12) 0.2809(10)
C5B C 0.3064(12) 0.4685(17) 0.3475(12)
C6B C 0.3030(12) 0.3597(14) 0.3544(12)
C24B C 0.4063(11) 0.7037(13) 0.2028(11)
C12B C 0.4540(11) -0.0942(12) 0.3362(9)
C14B C 0.5580(11) -0.0442(14) 0.4384(10)
C16B C 0.6257(10) 0.0776(14) 0.4896(9)
C19B C 0.6541(11) 0.2866(16) 0.5037(10)
C2B C 0.3127(9) 0.6561(4) 0.3079(11)
C4B C 0.2642(10) 0.5309(14) 0.3808(9)
C7B C 0.2506(12) 0.3270(17) 0.4048(11)
C15B C 0.6045(11) -0.0174(13) 0.4847(10)
C3B C 0.2681(10) 0.6248(17) 0.3596(10)
loop_
_geom_bond_atom_site_label_1
_geom_bond_atom_site_label_2
_geom_bond_site_symmetry_1
_geom_bond_site_symmetry_2
Mn1 N1 1_555 1_555
Mn1 N2 1_555 1_555
Mn1 N6 1_555 1_555
Mn1 O1 1_555 1_555
Mn1 O2 1_555 1_555
Mn1 O2B 1_555 1_555
Mn2 N3 1_555 1_555
Mn2 N4 1_555 1_555
Mn2 N5 1_555 1_555
Mn2 O1 1_555 1_555
Mn2 O2 1_555 1_555
Mn2 O1B 1_555 1_555
N1 C1 1_555 1_555
N1 C5 1_555 1_555
N2 C6 1_555 1_555
N2 C8 1_555 1_555
N3 C10 1_555 1_555
N3 C11 1_555 1_555
N4 C13 1_555 1_555
N4 C17 1_555 1_555
N5 C18 1_555 1_555
N5 C20 1_555 1_555
N6 C22 1_555 1_555
N6 C23 1_555 1_555
C1 C2 1_555 1_555
C1 C23 1_555 1_555
C2 C3 1_555 1_555
C3 C4 1_555 1_555
C4 C5 1_555 1_555
C5 C6 1_555 1_555
C6 C7 1_555 1_555
C8 C9 1_555 1_555
C9 C10 1_555 1_555
C9 O1 1_555 1_555
C11 C12 1_555 1_555
C11 C13 1_555 1_555
C13 C14 1_555 1_555
C14 C15 1_555 1_555
C15 C16 1_555 1_555
C16 C17 1_555 1_555
C17 C18 1_555 1_555
C18 C19 1_555 1_555
C20 C21 1_555 1_555
C21 O2 1_555 1_555
C21 C22B 1_555 1_555
C22 C21B 1_555 1_555
C23 C24 1_555 1_555
O1 Mn2B 1_555 1_555
O2 Mn1B 1_555 1_555
O2B C21B 1_555 1_555
O2B Mn2B 1_555 1_555
O2B Mn1B 1_555 1_555
O1B Mn2B 1_555 1_555
O1B Mn1B 1_555 1_555
O1B C9B 1_555 1_555
C22B N6B 1_555 1_555
C21B C20B 1_555 1_555
Mn2B N3B 1_555 1_555
Mn2B N4B 1_555 1_555
Mn2B N5B 1_555 1_555
Mn1B N6B 1_555 1_555
Mn1B N1B 1_555 1_555
Mn1B N2B 1_555 1_555
C9B C8B 1_555 1_555
C9B C10B 1_555 1_555
N6B C23B 1_555 1_555
C20B N5B 1_555 1_555
N3B C10B 1_555 1_555
N3B C11B 1_555 1_555
N4B C13B 1_555 1_555
N4B C17B 1_555 1_555
N5B C18B 1_555 1_555
N1B C1B 1_555 1_555
N1B C5B 1_555 1_555
N2B C8B 1_555 1_555
N2B C6B 1_555 1_555
C23B C1B 1_555 1_555
C23B C24B 1_555 1_555
C11B C13B 1_555 1_555
C11B C12B 1_555 1_555
C13B C14B 1_555 1_555
C17B C18B 1_555 1_555
C17B C16B 1_555 1_555
C18B C19B 1_555 1_555
C1B C2B 1_555 1_555
C5B C6B 1_555 1_555
C5B C4B 1_555 1_555
C6B C7B 1_555 1_555
C14B C15B 1_555 1_555
C16B C15B 1_555 1_555
C2B C3B 1_555 1_555
C4B C3B 1_555 1_555

#END
