
#######################################################################
#
#                 Cambridge Crystallographic Data Centre
#                                CCDC 
#
#######################################################################
#
# If this CIF has been generated from an entry in the Cambridge 
# Structural Database, then it will include bibliographic, chemical, 
# crystal, experimental, refinement or atomic coordinate data resulting 
# from the CCDC's data processing and validation procedures.
#
#######################################################################

data_DAWSOL
_chemical_formula_moiety         
'4(C2 H10 N2 2+),2(C4 H18 Cu1 N4 O1),C4 H16 Cu1 N4,C8 H39 Cu2 Gd2 K1 N8 O156 Si4 W44 8-,15(H2 O1)'
_chemical_name_systematic        
'tetrakis(1,2-Diammonioethane) bis(aqua-bis(1,2-diaminoethane)-copper(ii)) (bis(1,2-diaminoethane)-copper(ii)) tetrakis(\m~11~-silicato)-octakis(\m~3~-oxo)-heptakis(\m~2~-hydroxo)-trioctacontakis(\m~2~-oxo)-tetrakis(1,2-diaminoethane)-dotetraconta-oxo-di-copper(ii)-di-gadolinium(iii)-potassium-tetratetraconta-tungsten pentadecahydrate'
_symmetry_cell_setting           monoclinic
_symmetry_space_group_name_H-M   'P 21/c'
_symmetry_Int_Tables_number      14
_space_group_name_Hall           '-P 2ybc'
loop_
_symmetry_equiv_pos_site_id
_symmetry_equiv_pos_as_xyz
1 x,y,z
2 -x,1/2+y,1/2-z
3 -x,-y,-z
4 x,1/2-y,1/2+z
_cell_length_a                   17.545(3)
_cell_length_b                   24.189(4)
_cell_length_c                   24.659(4)
_cell_angle_alpha                90
_cell_angle_beta                 104.053(3)
_cell_angle_gamma                90
_cell_volume                     10152
_exptl_crystal_colour            purple
_exptl_crystal_description       block
_cell_formula_units_Z            2
loop_
_atom_site_label
_atom_site_type_symbol
_atom_site_fract_x
_atom_site_fract_y
_atom_site_fract_z
W1 W 0.15718(4) 0.10983(3) 1.03751(3)
W2 W 0.19373(4) 0.18600(3) 1.15512(3)
W3 W 0.04851(4) 0.08869(3) 1.13055(3)
W4 W 0.05853(4) 0.29252(3) 1.17418(3)
W5 W -0.09054(4) 0.19670(3) 1.15038(3)
W6 W -0.10866(4) 0.31261(3) 1.07554(3)
W7 W -0.13012(4) 0.11740(3) 1.01706(3)
W8 W -0.14519(4) 0.23661(3) 0.94343(3)
W9 W -0.01932(4) 0.13882(3) 0.92524(3)
W10 W 0.02161(4) 0.33929(3) 0.97903(3)
W11 W 0.14435(4) 0.24371(3) 0.96080(3)
W12 W 0.29451(4) 0.56263(3) 1.12052(3)
W13 W 0.20514(4) 0.46747(3) 1.18349(3)
W14 W 0.33623(4) 0.55972(3) 1.25989(3)
W15 W 0.31391(4) 0.35166(3) 1.25629(3)
W16 W 0.44653(4) 0.44133(4) 1.33637(3)
W17 W 0.50714(4) 0.33999(3) 1.26490(3)
W18 W 0.54664(4) 0.54144(3) 1.26297(3)
W19 W 0.60492(4) 0.43776(3) 1.19022(3)
W20 W 0.50363(4) 0.54505(3) 1.12252(3)
W21 W 0.44944(4) 0.34021(3) 1.10901(3)
W22 W 0.35138(3) 0.44443(2) 1.04220(3)
Gd1 Gd 0.22164(4) 0.33460(3) 1.08971(3)
Cu3 Cu -0.12790(16) 0.20342(11) 1.29503(11)
K1 K 0.00000 0.00000 1.00000
Si1 Si 0.0246(2) 0.21438(16) 1.04963(17)
Si2 Si 0.4042(2) 0.44962(17) 1.18651(17)
O1 O 0.2558(7) 0.6138(5) 1.0758(5)
O2 O 0.1078(6) 0.4674(5) 1.1863(5)
O3 O 0.3251(7) 0.6117(6) 1.3045(5)
O4 O 0.2567(7) 0.3103(5) 1.2866(5)
O5 O 0.4746(8) 0.4532(6) 1.4073(5)
O6 O 0.5691(7) 0.2863(6) 1.2898(6)
O7 O 0.6049(7) 0.5847(5) 1.3104(5)
O8 O 0.6995(6) 0.4174(5) 1.1922(5)
O9 O 0.5328(6) 0.5933(4) 1.0804(4)
O10 O 0.5069(6) 0.2920(5) 1.0867(5)
O11 O 0.3446(6) 0.4680(4) 0.9756(4)
O12 O 0.3569(6) 0.3074(4) 1.0940(5)
O13 O 0.4278(6) 0.3863(4) 1.0433(4)
O14 O 0.5479(6) 0.5794(4) 1.1960(5)
O15 O 0.3641(7) 0.3925(5) 1.3302(5)
O16 O 0.6265(6) 0.4956(5) 1.2492(5)
O17 O 0.2083(6) 0.4221(4) 1.1300(4)
O18 O 0.5160(7) 0.3805(5) 1.3332(5)
O19 O 0.3766(7) 0.5008(5) 1.3111(5)
O20 O 0.5783(6) 0.3907(5) 1.2459(5)
O21 O 0.4442(6) 0.5704(4) 1.2568(5)
O22 O 0.4756(6) 0.3238(4) 1.1881(4)
O23 O 0.3075(6) 0.6009(4) 1.1906(5)
O24 O 0.5457(6) 0.3937(4) 1.1362(4)
O25 O 0.4111(7) 0.3097(5) 1.2762(5)
O26 O 0.4042(6) 0.5737(4) 1.1274(4)
O27 O 0.5215(6) 0.4867(5) 1.3096(4)
O28 O 0.2387(7) 0.5292(5) 1.2438(5)
O29 O 0.2514(7) 0.4183(5) 1.2419(4)
O30 O 0.2707(5) 0.3988(4) 1.0315(4)
O31 O 0.2892(6) 0.3328(4) 1.1853(4)
O32 O 0.5965(6) 0.4977(4) 1.1390(4)
O33 O 0.3036(5) 0.5049(4) 1.0710(4)
O34 O 0.4510(5) 0.4955(4) 1.0725(4)
O35 O 0.2019(6) 0.5318(4) 1.1331(4)
O36 O 0.3364(6) 0.4938(4) 1.1881(4)
O37 O 0.4136(6) 0.4096(4) 1.2410(4)
O38 O 0.4856(5) 0.4823(4) 1.1909(4)
O39 O 0.3849(6) 0.4144(4) 1.1296(4)
O40 O 0.2169(6) 0.0653(4) 1.0135(5)
O41 O 0.2737(7) 0.1806(5) 1.2103(5)
O42 O 0.0339(7) 0.0288(5) 1.1631(5)
O43 O 0.0864(6) 0.3244(5) 1.2367(5)
O44 O -0.1478(7) 0.1731(4) 1.1942(5)
O45 O -0.1783(6) 0.3632(4) 1.0712(5)
O46 O -0.2007(6) 0.0675(5) 1.0168(5)
O47 O -0.2273(7) 0.2606(5) 0.8964(5)
O48 O -0.0178(7) 0.1019(5) 0.8661(5)
O49 O -0.0155(7) 0.3960(5) 0.9391(5)
O50 O 0.1871(6) 0.2318(5) 0.9048(4)
O51 O 0.1058(5) 0.3682(4) 1.0244(4)
O52 O 0.2152(6) 0.2853(4) 1.0050(4)
O53 O 0.2272(6) 0.1315(4) 1.1047(5)
O54 O 0.1400(6) 0.1158(5) 1.1759(4)
O55 O 0.1088(6) 0.0601(4) 1.0802(4)
O56 O 0.2190(6) 0.2409(4) 1.1162(4)
O57 O -0.0932(6) 0.0917(4) 0.9548(4)
O58 O -0.0210(6) 0.2415(4) 1.1995(4)
O59 O -0.0405(6) 0.0844(4) 1.0656(4)
O60 O -0.0425(6) 0.3421(4) 1.0330(4)
O61 O -0.0145(6) 0.1389(4) 1.1594(4)
O62 O 0.1748(6) 0.1758(4) 1.0017(4)
O63 O -0.1510(5) 0.2607(4) 1.1195(4)
O64 O -0.0710(6) 0.2872(4) 0.9391(4)
O65 O 0.0770(5) 0.3047(4) 0.9295(4)
O66 O 0.1157(6) 0.3226(4) 1.1329(4)
O67 O 0.0478(5) 0.1951(4) 0.9229(4)
O68 O -0.1378(6) 0.1604(4) 1.0799(4)
O69 O -0.1091(6) 0.1857(4) 0.8952(4)
O70 O -0.1944(5) 0.1699(4) 0.9692(4)
O71 O 0.1216(6) 0.2270(4) 1.1857(4)
O72 O 0.0617(6) 0.1033(4) 0.9796(4)
O73 O -0.1549(6) 0.2697(4) 1.0120(4)
O74 O -0.0361(6) 0.3357(4) 1.1412(4)
O75 O 0.0845(6) 0.1663(4) 1.0816(4)
O76 O -0.0152(5) 0.2430(4) 1.0956(4)
O77 O -0.0453(5) 0.1849(4) 1.0028(4)
O78 O 0.0683(5) 0.2589(4) 1.0199(4)
N7 N -0.0136(10) 0.1990(8) 1.3103(6)
H13 H 0.00320 0.21650 1.28310
H14 H 0.00800 0.21590 1.34300
N8 N -0.1194(10) 0.1246(7) 1.3202(8)
H15 H -0.10540 0.12270 1.35780
H16 H -0.16560 0.10710 1.30790
N9 N -0.2430(12) 0.2109(9) 1.2777(8)
H17 H -0.26530 0.18820 1.24940
H18 H -0.26090 0.20180 1.30770
N10 N -0.1292(12) 0.2839(7) 1.2733(8)
H19 H -0.10810 0.30430 1.30370
H20 H -0.09950 0.28860 1.24850
C7 C 0.0130(12) 0.1376(9) 1.3133(8)
H37 H 0.04790 0.13190 1.28880
H38 H 0.04160 0.12880 1.35120
C8 C -0.0581(13) 0.0992(11) 1.2959(12)
H39 H -0.07570 0.09710 1.25550
H40 H -0.04530 0.06230 1.31060
C9 C -0.2637(19) 0.2703(14) 1.2613(14)
H41 H -0.30800 0.27010 1.22890
H42 H -0.28120 0.28770 1.29160
C10 C -0.207(2) 0.3025(14) 1.2492(15)
H43 H -0.21250 0.33970 1.26230
H44 H -0.21460 0.30410 1.20900
W1B W -0.15718(4) -0.10983(3) 0.96249(3)
W2B W -0.19373(4) -0.18600(3) 0.84488(3)
W3B W -0.04851(4) -0.08869(3) 0.86945(3)
W4B W -0.05853(4) -0.29252(3) 0.82582(3)
W5B W 0.09054(4) -0.19670(3) 0.84962(3)
W6B W 0.10866(4) -0.31261(3) 0.92446(3)
W7B W 0.13012(4) -0.11740(3) 0.98294(3)
W8B W 0.14519(4) -0.23661(3) 1.05657(3)
W9B W 0.01932(4) -0.13882(3) 1.07476(3)
W10B W -0.02161(4) -0.33929(3) 1.02097(3)
W11B W -0.14435(4) -0.24371(3) 1.03920(3)
W12B W -0.29451(4) -0.56263(3) 0.87948(3)
W13B W -0.20514(4) -0.46747(3) 0.81651(3)
W14B W -0.33623(4) -0.55972(3) 0.74011(3)
W15B W -0.31391(4) -0.35166(3) 0.74371(3)
W16B W -0.44653(4) -0.44133(4) 0.66363(3)
W17B W -0.50714(4) -0.33999(3) 0.73510(3)
W18B W -0.54664(4) -0.54144(3) 0.73703(3)
W19B W -0.60492(4) -0.43776(3) 0.80978(3)
W20B W -0.50363(4) -0.54505(3) 0.87748(3)
W21B W -0.44944(4) -0.34021(3) 0.89099(3)
W22B W -0.35138(3) -0.44443(2) 0.95780(3)
Gd1B Gd -0.22164(4) -0.33460(3) 0.91029(3)
Cu3B Cu 0.12790(16) -0.20342(11) 0.70497(11)
Si1B Si -0.0246(2) -0.21438(16) 0.95037(17)
Si2B Si -0.4042(2) -0.44962(17) 0.81349(17)
O1B O -0.2558(7) -0.6138(5) 0.9242(5)
O2B O -0.1078(6) -0.4674(5) 0.8137(5)
O3B O -0.3251(7) -0.6117(6) 0.6955(5)
O4B O -0.2567(7) -0.3103(5) 0.7134(5)
O5B O -0.4746(8) -0.4532(6) 0.5927(5)
O6B O -0.5691(7) -0.2863(6) 0.7102(6)
O7B O -0.6049(7) -0.5847(5) 0.6896(5)
O8B O -0.6995(6) -0.4174(5) 0.8078(5)
O9B O -0.5328(6) -0.5933(4) 0.9196(4)
O10B O -0.5069(6) -0.2920(5) 0.9133(5)
O11B O -0.3446(6) -0.4680(4) 1.0244(4)
O12B O -0.3569(6) -0.3074(4) 0.9060(5)
O13B O -0.4278(6) -0.3863(4) 0.9567(4)
O14B O -0.5479(6) -0.5794(4) 0.8040(5)
O15B O -0.3641(7) -0.3925(5) 0.6698(5)
O16B O -0.6265(6) -0.4956(5) 0.7508(5)
O17B O -0.2083(6) -0.4221(4) 0.8700(4)
O18B O -0.5160(7) -0.3805(5) 0.6668(5)
O19B O -0.3766(7) -0.5008(5) 0.6889(5)
O20B O -0.5783(6) -0.3907(5) 0.7541(5)
O21B O -0.4442(6) -0.5704(4) 0.7432(5)
O22B O -0.4756(6) -0.3238(4) 0.8119(4)
O23B O -0.3075(6) -0.6009(4) 0.8094(5)
O24B O -0.5457(6) -0.3937(4) 0.8638(4)
O25B O -0.4111(7) -0.3097(5) 0.7238(5)
O26B O -0.4042(6) -0.5737(4) 0.8726(4)
O27B O -0.5215(6) -0.4867(5) 0.6904(4)
O28B O -0.2387(7) -0.5292(5) 0.7562(5)
O29B O -0.2514(7) -0.4183(5) 0.7581(4)
O30B O -0.2707(5) -0.3988(4) 0.9685(4)
O31B O -0.2892(6) -0.3328(4) 0.8147(4)
O32B O -0.5965(6) -0.4977(4) 0.8610(4)
O33B O -0.3036(5) -0.5049(4) 0.9290(4)
O34B O -0.4510(5) -0.4955(4) 0.9275(4)
O35B O -0.2019(6) -0.5318(4) 0.8669(4)
O36B O -0.3364(6) -0.4938(4) 0.8119(4)
O37B O -0.4136(6) -0.4096(4) 0.7590(4)
O38B O -0.4856(5) -0.4823(4) 0.8091(4)
O39B O -0.3849(6) -0.4144(4) 0.8704(4)
O40B O -0.2169(6) -0.0653(4) 0.9865(5)
O41B O -0.2737(7) -0.1806(5) 0.7897(5)
O42B O -0.0339(7) -0.0288(5) 0.8369(5)
O43B O -0.0864(6) -0.3244(5) 0.7633(5)
O44B O 0.1478(7) -0.1731(4) 0.8058(5)
O45B O 0.1783(6) -0.3632(4) 0.9288(5)
O46B O 0.2007(6) -0.0675(5) 0.9832(5)
O47B O 0.2273(7) -0.2606(5) 1.1036(5)
O48B O 0.0178(7) -0.1019(5) 1.1339(5)
O49B O 0.0155(7) -0.3960(5) 1.0609(5)
O50B O -0.1871(6) -0.2318(5) 1.0952(4)
O51B O -0.1058(5) -0.3682(4) 0.9756(4)
O52B O -0.2152(6) -0.2853(4) 0.9950(4)
O53B O -0.2272(6) -0.1315(4) 0.8953(5)
O54B O -0.1400(6) -0.1158(5) 0.8241(4)
O55B O -0.1088(6) -0.0601(4) 0.9198(4)
O56B O -0.2190(6) -0.2409(4) 0.8838(4)
O57B O 0.0932(6) -0.0917(4) 1.0452(4)
O58B O 0.0210(6) -0.2415(4) 0.8005(4)
O59B O 0.0405(6) -0.0844(4) 0.9344(4)
O60B O 0.0425(6) -0.3421(4) 0.9670(4)
O61B O 0.0145(6) -0.1389(4) 0.8406(4)
O62B O -0.1748(6) -0.1758(4) 0.9983(4)
O63B O 0.1510(5) -0.2607(4) 0.8805(4)
O64B O 0.0710(6) -0.2872(4) 1.0609(4)
O65B O -0.0770(5) -0.3047(4) 1.0705(4)
O66B O -0.1157(6) -0.3226(4) 0.8671(4)
O67B O -0.0478(5) -0.1951(4) 1.0771(4)
O68B O 0.1378(6) -0.1604(4) 0.9201(4)
O69B O 0.1091(6) -0.1857(4) 1.1048(4)
O70B O 0.1944(5) -0.1699(4) 1.0308(4)
O71B O -0.1216(6) -0.2270(4) 0.8143(4)
O72B O -0.0617(6) -0.1033(4) 1.0204(4)
O73B O 0.1549(6) -0.2697(4) 0.9880(4)
O74B O 0.0361(6) -0.3357(4) 0.8588(4)
O75B O -0.0845(6) -0.1663(4) 0.9184(4)
O76B O 0.0152(5) -0.2430(4) 0.9044(4)
O77B O 0.0453(5) -0.1849(4) 0.9972(4)
O78B O -0.0683(5) -0.2589(4) 0.9801(4)
N7B N 0.0136(10) -0.1990(8) 0.6897(6)
H13B H -0.00320 -0.21650 0.71690
H14B H -0.00800 -0.21590 0.65700
N8B N 0.1194(10) -0.1246(7) 0.6798(8)
H15B H 0.10540 -0.12270 0.64220
H16B H 0.16560 -0.10710 0.69210
N9B N 0.2430(12) -0.2109(9) 0.7223(8)
H17B H 0.26530 -0.18820 0.75060
H18B H 0.26090 -0.20180 0.69230
N10B N 0.1292(12) -0.2839(7) 0.7267(8)
H19B H 0.10810 -0.30430 0.69630
H20B H 0.09950 -0.28860 0.75150
C7B C -0.0130(12) -0.1376(9) 0.6867(8)
H37B H -0.04790 -0.13190 0.71120
H38B H -0.04160 -0.12880 0.64880
C8B C 0.0581(13) -0.0992(11) 0.7041(12)
H39B H 0.07570 -0.09710 0.74450
H40B H 0.04530 -0.06230 0.68940
C9B C 0.2637(19) -0.2703(14) 0.7387(14)
H41B H 0.30800 -0.27010 0.77110
H42B H 0.28120 -0.28770 0.70840
C10B C 0.207(2) -0.3025(14) 0.7508(15)
H43B H 0.21250 -0.33970 0.73770
H44B H 0.21460 -0.30410 0.79100
loop_
_geom_bond_atom_site_label_1
_geom_bond_atom_site_label_2
_geom_bond_site_symmetry_1
_geom_bond_site_symmetry_2
W1 O40 1_555 1_555
W1 O53 1_555 1_555
W1 O55 1_555 1_555
W1 O62 1_555 1_555
W1 O72 1_555 1_555
W1 O75 1_555 1_555
W2 O41 1_555 1_555
W2 O53 1_555 1_555
W2 O54 1_555 1_555
W2 O56 1_555 1_555
W2 O71 1_555 1_555
W2 O75 1_555 1_555
W3 O42 1_555 1_555
W3 O54 1_555 1_555
W3 O55 1_555 1_555
W3 O59 1_555 1_555
W3 O61 1_555 1_555
W3 O75 1_555 1_555
W4 O43 1_555 1_555
W4 O58 1_555 1_555
W4 O66 1_555 1_555
W4 O71 1_555 1_555
W4 O74 1_555 1_555
W4 O76 1_555 1_555
W5 O44 1_555 1_555
W5 O58 1_555 1_555
W5 O61 1_555 1_555
W5 O63 1_555 1_555
W5 O68 1_555 1_555
W5 O76 1_555 1_555
W6 O45 1_555 1_555
W6 O60 1_555 1_555
W6 O63 1_555 1_555
W6 O73 1_555 1_555
W6 O74 1_555 1_555
W6 O76 1_555 1_555
W7 O46 1_555 1_555
W7 O57 1_555 1_555
W7 O59 1_555 1_555
W7 O68 1_555 1_555
W7 O70 1_555 1_555
W7 O77 1_555 1_555
W8 O47 1_555 1_555
W8 O64 1_555 1_555
W8 O69 1_555 1_555
W8 O70 1_555 1_555
W8 O73 1_555 1_555
W8 O77 1_555 1_555
W9 O48 1_555 1_555
W9 O57 1_555 1_555
W9 O67 1_555 1_555
W9 O69 1_555 1_555
W9 O72 1_555 1_555
W9 O77 1_555 1_555
W10 O49 1_555 1_555
W10 O51 1_555 1_555
W10 O60 1_555 1_555
W10 O64 1_555 1_555
W10 O65 1_555 1_555
W10 O78 1_555 1_555
W11 O50 1_555 1_555
W11 O52 1_555 1_555
W11 O62 1_555 1_555
W11 O65 1_555 1_555
W11 O67 1_555 1_555
W11 O78 1_555 1_555
W12 O1 1_555 1_555
W12 O23 1_555 1_555
W12 O26 1_555 1_555
W12 O33 1_555 1_555
W12 O35 1_555 1_555
W12 O36 1_555 1_555
W13 O2 1_555 1_555
W13 O17 1_555 1_555
W13 O28 1_555 1_555
W13 O29 1_555 1_555
W13 O35 1_555 1_555
W13 O36 1_555 1_555
W14 O3 1_555 1_555
W14 O19 1_555 1_555
W14 O21 1_555 1_555
W14 O23 1_555 1_555
W14 O28 1_555 1_555
W14 O36 1_555 1_555
W15 O4 1_555 1_555
W15 O15 1_555 1_555
W15 O25 1_555 1_555
W15 O29 1_555 1_555
W15 O31 1_555 1_555
W15 O37 1_555 1_555
W16 O5 1_555 1_555
W16 O15 1_555 1_555
W16 O18 1_555 1_555
W16 O19 1_555 1_555
W16 O27 1_555 1_555
W16 O37 1_555 1_555
W17 O6 1_555 1_555
W17 O18 1_555 1_555
W17 O20 1_555 1_555
W17 O22 1_555 1_555
W17 O25 1_555 1_555
W17 O37 1_555 1_555
W18 O7 1_555 1_555
W18 O14 1_555 1_555
W18 O16 1_555 1_555
W18 O21 1_555 1_555
W18 O27 1_555 1_555
W18 O38 1_555 1_555
W19 O8 1_555 1_555
W19 O16 1_555 1_555
W19 O20 1_555 1_555
W19 O24 1_555 1_555
W19 O32 1_555 1_555
W19 O38 1_555 1_555
W20 O9 1_555 1_555
W20 O14 1_555 1_555
W20 O26 1_555 1_555
W20 O32 1_555 1_555
W20 O34 1_555 1_555
W20 O38 1_555 1_555
W21 O10 1_555 1_555
W21 O12 1_555 1_555
W21 O13 1_555 1_555
W21 O22 1_555 1_555
W21 O24 1_555 1_555
W21 O39 1_555 1_555
W22 O11 1_555 1_555
W22 O13 1_555 1_555
W22 O30 1_555 1_555
W22 O33 1_555 1_555
W22 O34 1_555 1_555
W22 O39 1_555 1_555
Gd1 O12 1_555 1_555
Gd1 O17 1_555 1_555
Gd1 O30 1_555 1_555
Gd1 O31 1_555 1_555
Gd1 O51 1_555 1_555
Gd1 O52 1_555 1_555
Gd1 O56 1_555 1_555
Gd1 O66 1_555 1_555
Cu3 O44 1_555 1_555
Cu3 N7 1_555 1_555
Cu3 N8 1_555 1_555
Cu3 N9 1_555 1_555
Cu3 N10 1_555 1_555
K1 O55 1_555 1_555
K1 O57 1_555 1_555
K1 O59 1_555 1_555
K1 O72 1_555 1_555
K1 O55B 1_555 1_555
K1 O57B 1_555 1_555
K1 O59B 1_555 1_555
K1 O72B 1_555 1_555
Si1 O75 1_555 1_555
Si1 O76 1_555 1_555
Si1 O77 1_555 1_555
Si1 O78 1_555 1_555
Si2 O36 1_555 1_555
Si2 O37 1_555 1_555
Si2 O38 1_555 1_555
Si2 O39 1_555 1_555
N7 H13 1_555 1_555
N7 H14 1_555 1_555
N7 C7 1_555 1_555
N8 H15 1_555 1_555
N8 H16 1_555 1_555
N8 C8 1_555 1_555
N9 H17 1_555 1_555
N9 H18 1_555 1_555
N9 C9 1_555 1_555
N10 H19 1_555 1_555
N10 H20 1_555 1_555
N10 C10 1_555 1_555
C7 H37 1_555 1_555
C7 H38 1_555 1_555
C7 C8 1_555 1_555
C8 H39 1_555 1_555
C8 H40 1_555 1_555
C9 H41 1_555 1_555
C9 H42 1_555 1_555
C9 C10 1_555 1_555
C10 H43 1_555 1_555
C10 H44 1_555 1_555
W1B O40B 1_555 1_555
W1B O53B 1_555 1_555
W1B O55B 1_555 1_555
W1B O62B 1_555 1_555
W1B O72B 1_555 1_555
W1B O75B 1_555 1_555
W2B O41B 1_555 1_555
W2B O53B 1_555 1_555
W2B O54B 1_555 1_555
W2B O56B 1_555 1_555
W2B O71B 1_555 1_555
W2B O75B 1_555 1_555
W3B O42B 1_555 1_555
W3B O54B 1_555 1_555
W3B O55B 1_555 1_555
W3B O59B 1_555 1_555
W3B O61B 1_555 1_555
W3B O75B 1_555 1_555
W4B O43B 1_555 1_555
W4B O58B 1_555 1_555
W4B O66B 1_555 1_555
W4B O71B 1_555 1_555
W4B O74B 1_555 1_555
W4B O76B 1_555 1_555
W5B O44B 1_555 1_555
W5B O58B 1_555 1_555
W5B O61B 1_555 1_555
W5B O63B 1_555 1_555
W5B O68B 1_555 1_555
W5B O76B 1_555 1_555
W6B O45B 1_555 1_555
W6B O60B 1_555 1_555
W6B O63B 1_555 1_555
W6B O73B 1_555 1_555
W6B O74B 1_555 1_555
W6B O76B 1_555 1_555
W7B O46B 1_555 1_555
W7B O57B 1_555 1_555
W7B O59B 1_555 1_555
W7B O68B 1_555 1_555
W7B O70B 1_555 1_555
W7B O77B 1_555 1_555
W8B O47B 1_555 1_555
W8B O64B 1_555 1_555
W8B O69B 1_555 1_555
W8B O70B 1_555 1_555
W8B O73B 1_555 1_555
W8B O77B 1_555 1_555
W9B O48B 1_555 1_555
W9B O57B 1_555 1_555
W9B O67B 1_555 1_555
W9B O69B 1_555 1_555
W9B O72B 1_555 1_555
W9B O77B 1_555 1_555
W10B O49B 1_555 1_555
W10B O51B 1_555 1_555
W10B O60B 1_555 1_555
W10B O64B 1_555 1_555
W10B O65B 1_555 1_555
W10B O78B 1_555 1_555
W11B O50B 1_555 1_555
W11B O52B 1_555 1_555
W11B O62B 1_555 1_555
W11B O65B 1_555 1_555
W11B O67B 1_555 1_555
W11B O78B 1_555 1_555
W12B O1B 1_555 1_555
W12B O23B 1_555 1_555
W12B O26B 1_555 1_555
W12B O33B 1_555 1_555
W12B O35B 1_555 1_555
W12B O36B 1_555 1_555
W13B O2B 1_555 1_555
W13B O17B 1_555 1_555
W13B O28B 1_555 1_555
W13B O29B 1_555 1_555
W13B O35B 1_555 1_555
W13B O36B 1_555 1_555
W14B O3B 1_555 1_555
W14B O19B 1_555 1_555
W14B O21B 1_555 1_555
W14B O23B 1_555 1_555
W14B O28B 1_555 1_555
W14B O36B 1_555 1_555
W15B O4B 1_555 1_555
W15B O15B 1_555 1_555
W15B O25B 1_555 1_555
W15B O29B 1_555 1_555
W15B O31B 1_555 1_555
W15B O37B 1_555 1_555
W16B O5B 1_555 1_555
W16B O15B 1_555 1_555
W16B O18B 1_555 1_555
W16B O19B 1_555 1_555
W16B O27B 1_555 1_555
W16B O37B 1_555 1_555
W17B O6B 1_555 1_555
W17B O18B 1_555 1_555
W17B O20B 1_555 1_555
W17B O22B 1_555 1_555
W17B O25B 1_555 1_555
W17B O37B 1_555 1_555
W18B O7B 1_555 1_555
W18B O14B 1_555 1_555
W18B O16B 1_555 1_555
W18B O21B 1_555 1_555
W18B O27B 1_555 1_555
W18B O38B 1_555 1_555
W19B O8B 1_555 1_555
W19B O16B 1_555 1_555
W19B O20B 1_555 1_555
W19B O24B 1_555 1_555
W19B O32B 1_555 1_555
W19B O38B 1_555 1_555
W20B O9B 1_555 1_555
W20B O14B 1_555 1_555
W20B O26B 1_555 1_555
W20B O32B 1_555 1_555
W20B O34B 1_555 1_555
W20B O38B 1_555 1_555
W21B O10B 1_555 1_555
W21B O12B 1_555 1_555
W21B O13B 1_555 1_555
W21B O22B 1_555 1_555
W21B O24B 1_555 1_555
W21B O39B 1_555 1_555
W22B O11B 1_555 1_555
W22B O13B 1_555 1_555
W22B O30B 1_555 1_555
W22B O33B 1_555 1_555
W22B O34B 1_555 1_555
W22B O39B 1_555 1_555
Gd1B O12B 1_555 1_555
Gd1B O17B 1_555 1_555
Gd1B O30B 1_555 1_555
Gd1B O31B 1_555 1_555
Gd1B O51B 1_555 1_555
Gd1B O52B 1_555 1_555
Gd1B O56B 1_555 1_555
Gd1B O66B 1_555 1_555
Cu3B O44B 1_555 1_555
Cu3B N7B 1_555 1_555
Cu3B N8B 1_555 1_555
Cu3B N9B 1_555 1_555
Cu3B N10B 1_555 1_555
Si1B O75B 1_555 1_555
Si1B O76B 1_555 1_555
Si1B O77B 1_555 1_555
Si1B O78B 1_555 1_555
Si2B O36B 1_555 1_555
Si2B O37B 1_555 1_555
Si2B O38B 1_555 1_555
Si2B O39B 1_555 1_555
N7B H13B 1_555 1_555
N7B H14B 1_555 1_555
N7B C7B 1_555 1_555
N8B H15B 1_555 1_555
N8B H16B 1_555 1_555
N8B C8B 1_555 1_555
N9B H17B 1_555 1_555
N9B H18B 1_555 1_555
N9B C9B 1_555 1_555
N10B H19B 1_555 1_555
N10B H20B 1_555 1_555
N10B C10B 1_555 1_555
C7B H37B 1_555 1_555
C7B H38B 1_555 1_555
C7B C8B 1_555 1_555
C8B H39B 1_555 1_555
C8B H40B 1_555 1_555
C9B H41B 1_555 1_555
C9B H42B 1_555 1_555
C9B C10B 1_555 1_555
C10B H43B 1_555 1_555
C10B H44B 1_555 1_555

#END
