
#######################################################################
#
#                 Cambridge Crystallographic Data Centre
#                                CCDC 
#
#######################################################################
#
# If this CIF has been generated from an entry in the Cambridge 
# Structural Database, then it will include bibliographic, chemical, 
# crystal, experimental, refinement or atomic coordinate data resulting 
# from the CCDC's data processing and validation procedures.
#
#######################################################################

data_ENANAJ
_chemical_formula_moiety         'C36 H114 B18 N24 O60 V12 Zn6,9(H2 O1)'
_chemical_name_systematic        
"cyclo-hexakis(\m~6~-4-Hydroxy-2,2,6-trioxidoboroxin-6-yl)-hexakis(\m~3~-oxo)-hexakis(N,N'-bis(2-aminoethyl)ethane-1,2-diamine-N,N',N'',N''')-dodeca-vanadium(iv)-hexa-zinc(ii) aqua clathrate octahydrate"
_symmetry_cell_setting           rhombohedral
_symmetry_space_group_name_H-M   'R -3'
_symmetry_Int_Tables_number      148
_space_group_name_Hall           '-R 3'
loop_
_symmetry_equiv_pos_site_id
_symmetry_equiv_pos_as_xyz
1 x,y,z
2 -y,x-y,z
3 -x+y,-x,z
4 2/3+x,1/3+y,1/3+z
5 2/3-y,1/3+x-y,1/3+z
6 2/3-x+y,1/3-x,1/3+z
7 1/3+x,2/3+y,2/3+z
8 1/3-y,2/3+x-y,2/3+z
9 1/3-x+y,2/3-x,2/3+z
10 -x,-y,-z
11 y,-x+y,-z
12 x-y,x,-z
13 1/3-x,2/3-y,2/3-z
14 1/3+y,2/3-x+y,2/3-z
15 1/3+x-y,2/3+x,2/3-z
16 2/3-x,1/3-y,1/3-z
17 2/3+y,1/3-x+y,1/3-z
18 2/3+x-y,1/3+x,1/3-z
_cell_length_a                   20.693(3)
_cell_length_b                   20.693(3)
_cell_length_c                   21.101(4)
_cell_angle_alpha                90
_cell_angle_beta                 90
_cell_angle_gamma                120
_cell_volume                     7824.93
_exptl_crystal_colour            red
_exptl_crystal_description       block
_cell_formula_units_Z            3
loop_
_atom_site_label
_atom_site_type_symbol
_atom_site_fract_x
_atom_site_fract_y
_atom_site_fract_z
Zn1 Zn 0.38278(2) 0.19563(4) 0.01166(3)
V1 V 0.10136(2) -0.00248(2) 0.13356(2)
V2 V 0.15576(2) -0.00366(2) -0.08906(2)
O1 O 0.32790(12) -0.01060(12) 0.13808(11)
O2 O 0.2893(1) 0.06239(10) 0.07878(9)
H1 H 0.35570 0.02900 0.15580
O3 O 0.2173(1) -0.0705(1) 0.08165(9)
O4 O 0.19257(9) -0.00391(9) -0.00052(8)
O5 O 0.27381(9) 0.13252(9) -0.00083(8)
O6 O 0.17813(9) 0.07353(9) 0.07740(8)
O7 O 0.07774(10) -0.00212(10) -0.13895(8)
O8 O 0.17575(10) 0.09720(9) -0.07584(8)
O9 O 0.14050(11) -0.00403(11) 0.19955(10)
O10 O 0.21835(11) -0.00348(11) -0.13642(9)
B1 B 0.27774(17) -0.00442(18) 0.09925(15)
B2 B 0.23247(16) 0.06653(16) 0.03858(14)
B3 B 0.23278(16) 0.15902(16) -0.03926(14)
N1 N 0.4610(7) 0.1825(9) 0.0689(8)
H2 H 0.50230 0.22700 0.07520
H3 H 0.44070 0.16330 0.10690
N2 N 0.4349(5) 0.1614(5) -0.0639(4)
H4 H 0.39910 0.12330 -0.08720
N3 N 0.4397(4) 0.2945(6) -0.0382(4)
H5 H 0.40900 0.29390 -0.06950
N4 N 0.3774(3) 0.2657(4) 0.0826(3)
H6 H 0.33170 0.24430 0.10030
H7 H 0.41150 0.27570 0.11310
C1 C 0.4800(7) 0.1326(7) 0.0362(5)
H8 H 0.44240 0.08180 0.04660
H9 H 0.52710 0.14080 0.05300
C2 C 0.4867(6) 0.1389(7) -0.0360(4)
H10 H 0.53760 0.17550 -0.04730
H11 H 0.47590 0.09130 -0.05360
C3 C 0.4803(6) 0.2263(6) -0.1047(5)
H12 H 0.45120 0.22470 -0.14130
H13 H 0.52360 0.22440 -0.11960
C5 C 0.4588(5) 0.3572(7) 0.0006(5)
H16 H 0.46500 0.39890 -0.02480
H17 H 0.50520 0.37190 0.02290
C6 C 0.3934(6) 0.3330(5) 0.0485(5)
H18 H 0.40610 0.37300 0.07860
H19 H 0.34900 0.32450 0.02580
Zn1K Zn 0.18715(2) 0.38278(4) -0.01166(3)
Zn1A Zn -0.19563(2) 0.18715(4) 0.01166(3)
Zn1I Zn -0.38278(2) -0.19563(4) -0.01166(3)
Zn1B Zn -0.18715(2) -0.38278(4) 0.01166(3)
Zn1J Zn 0.19563(2) -0.18715(4) -0.01166(3)
V1J V -0.00248(2) -0.10384(2) -0.13356(2)
V1K V 0.10384(2) 0.10136(2) -0.13356(2)
V1A V 0.00248(2) 0.10384(2) 0.13356(2)
V1I V -0.10136(2) 0.00248(2) -0.13356(2)
V1B V -0.10384(2) -0.10136(2) 0.13356(2)
V2A V 0.00366(2) 0.15942(2) -0.08906(2)
V2K V 0.15942(2) 0.15576(2) 0.08906(2)
V2I V -0.15576(2) 0.00366(2) 0.08906(2)
V2B V -0.15942(2) -0.15576(2) -0.08906(2)
V2J V -0.00366(2) -0.15942(2) 0.08906(2)
O1A O 0.01060(12) 0.33850(12) 0.13808(11)
O1K O 0.33850(12) 0.32790(12) -0.13808(11)
O1I O -0.32790(12) 0.01060(12) -0.13808(11)
O1B O -0.33850(12) -0.32790(12) 0.13808(11)
O1J O -0.01060(12) -0.33850(12) -0.13808(11)
O2A O -0.06239(10) 0.22691(10) 0.07878(9)
O2K O 0.22691(10) 0.2893(1) -0.07878(9)
O2I O -0.2893(1) -0.06239(10) -0.07878(9)
O2B O -0.22691(10) -0.2893(1) 0.07878(9)
O2J O 0.06239(10) -0.22691(10) -0.07878(9)
H1A H -0.02900 0.32670 0.15580
H1K H 0.32670 0.35570 -0.15580
H1I H -0.35570 -0.02900 -0.15580
H1B H -0.32670 -0.35570 0.15580
H1J H 0.02900 -0.32670 -0.15580
O3A O 0.0705(1) 0.2878(1) 0.08165(9)
O3K O 0.2878(1) 0.2173(1) -0.08165(9)
O3I O -0.2173(1) 0.0705(1) -0.08165(9)
O3B O -0.2878(1) -0.2173(1) 0.08165(9)
O3J O -0.0705(1) -0.2878(1) -0.08165(9)
O4A O 0.00391(9) 0.19648(9) -0.00052(8)
O4K O 0.19648(9) 0.19257(9) 0.00052(8)
O4I O -0.19257(9) 0.00391(9) 0.00052(8)
O4B O -0.19648(9) -0.19257(9) -0.00052(8)
O4J O -0.00391(9) -0.19648(9) 0.00052(8)
O5K O 0.14129(9) 0.27381(9) 0.00083(8)
O5A O -0.13252(9) 0.14129(9) -0.00083(8)
O5I O -0.27381(9) -0.13252(9) 0.00083(8)
O5B O -0.14129(9) -0.27381(9) -0.00083(8)
O5J O 0.13252(9) -0.14129(9) 0.00083(8)
O6J O 0.07353(9) -0.10460(9) -0.07740(8)
O6K O 0.10460(9) 0.17813(9) -0.07740(8)
O6A O -0.07353(9) 0.10460(9) 0.07740(8)
O6I O -0.17813(9) -0.07353(9) -0.07740(8)
O6B O -0.10460(9) -0.17813(9) 0.07740(8)
O7K O 0.07986(10) 0.07774(10) 0.13895(8)
O7B O -0.07986(10) -0.07774(10) -0.13895(8)
O7A O 0.00212(10) 0.07986(10) -0.13895(8)
O7J O -0.00212(10) -0.07986(10) 0.13895(8)
O7I O -0.07774(10) 0.00212(10) 0.13895(8)
O8A O -0.0972(1) 0.07855(9) -0.07584(8)
O8I O -0.17575(10) -0.09720(9) 0.07584(8)
O8B O -0.07855(10) -0.17575(9) -0.07584(8)
O8J O 0.0972(1) -0.07855(9) 0.07584(8)
O8K O 0.07855(10) 0.17575(9) 0.07584(8)
O9K O 0.14453(11) 0.14050(11) -0.19955(10)
O9I O -0.14050(11) 0.00403(11) -0.19955(10)
O9J O -0.00403(11) -0.14453(11) -0.19955(10)
O9A O 0.00403(11) 0.14453(11) 0.19955(10)
O9B O -0.14453(11) -0.14050(11) 0.19955(10)
O10A O 0.00348(11) 0.22183(11) -0.13642(9)
O10B O -0.22183(11) -0.21835(11) -0.13642(9)
O10K O 0.22183(11) 0.21835(11) 0.13642(9)
O10I O -0.21835(11) 0.00348(11) 0.13642(9)
O10J O -0.00348(11) -0.22183(11) 0.13642(9)
B1A B 0.00442(17) 0.28216(18) 0.09925(15)
B1K B 0.28216(17) 0.27774(18) -0.09925(15)
B1I B -0.27774(17) 0.00442(18) -0.09925(15)
B1B B -0.28216(17) -0.27774(18) 0.09925(15)
B1J B -0.00442(17) -0.28216(18) -0.09925(15)
B2A B -0.06653(16) 0.16594(16) 0.03858(14)
B2K B 0.16594(16) 0.23247(16) -0.03858(14)
B2I B -0.23247(16) -0.06653(16) -0.03858(14)
B2B B -0.16594(16) -0.23247(16) 0.03858(14)
B2J B 0.06653(16) -0.16594(16) -0.03858(14)
B3J B 0.15902(16) -0.07376(16) 0.03926(14)
B3K B 0.07376(16) 0.23278(16) 0.03926(14)
B3A B -0.15902(16) 0.07376(16) -0.03926(14)
B3I B -0.23278(16) -0.15902(16) 0.03926(14)
B3B B -0.07376(16) -0.23278(16) -0.03926(14)
N1K N 0.2785(7) 0.4610(9) -0.0689(8)
N1A N -0.1825(7) 0.2785(9) 0.0689(8)
N1I N -0.4610(7) -0.1825(9) -0.0689(8)
N1B N -0.2785(7) -0.4610(9) 0.0689(8)
N1J N 0.1825(7) -0.2785(9) -0.0689(8)
H2K H 0.27530 0.50230 -0.07520
H2A H -0.22700 0.27530 0.07520
H2I H -0.50230 -0.22700 -0.07520
H2B H -0.27530 -0.50230 0.07520
H2J H 0.22700 -0.27530 -0.07520
H3K H 0.27740 0.44070 -0.10690
H3A H -0.16330 0.27740 0.10690
H3I H -0.44070 -0.16330 -0.10690
H3B H -0.27740 -0.44070 0.10690
H3J H 0.16330 -0.27740 -0.10690
N2K N 0.2735(5) 0.4349(5) 0.0639(4)
N2A N -0.1614(5) 0.2735(5) -0.0639(4)
N2I N -0.4349(5) -0.1614(5) 0.0639(4)
N2B N -0.2735(5) -0.4349(5) -0.0639(4)
N2J N 0.1614(5) -0.2735(5) 0.0639(4)
H4K H 0.27580 0.39910 0.08720
H4A H -0.12330 0.27580 -0.08720
H4I H -0.39910 -0.12330 0.08720
H4B H -0.27580 -0.39910 -0.08720
H4J H 0.12330 -0.27580 0.08720
N3K N 0.1452(4) 0.4397(6) 0.0382(4)
N3A N -0.2945(4) 0.1452(6) -0.0382(4)
N3I N -0.4397(4) -0.2945(6) 0.0382(4)
N3B N -0.1452(4) -0.4397(6) -0.0382(4)
N3J N 0.2945(4) -0.1452(6) 0.0382(4)
H5K H 0.11510 0.40900 0.06950
H5A H -0.29390 0.11510 -0.06950
H5I H -0.40900 -0.29390 0.06950
H5B H -0.11510 -0.40900 -0.06950
H5J H 0.29390 -0.11510 0.06950
N4K N 0.1117(3) 0.3774(4) -0.0826(3)
N4A N -0.2657(3) 0.1117(4) 0.0826(3)
N4I N -0.3774(3) -0.2657(4) -0.0826(3)
N4B N -0.1117(3) -0.3774(4) 0.0826(3)
N4J N 0.2657(3) -0.1117(4) -0.0826(3)
H6K H 0.08740 0.33170 -0.10030
H6A H -0.24430 0.08740 0.10030
H6I H -0.33170 -0.24430 -0.10030
H6B H -0.08740 -0.33170 0.10030
H6J H 0.24430 -0.08740 -0.10030
H7K H 0.13580 0.41150 -0.11310
H7A H -0.27570 0.13580 0.11310
H7I H -0.41150 -0.27570 -0.11310
H7B H -0.13580 -0.41150 0.11310
H7J H 0.27570 -0.13580 -0.11310
C1K C 0.3474(7) 0.4800(7) -0.0362(5)
C1A C -0.1326(7) 0.3474(7) 0.0362(5)
C1I C -0.4800(7) -0.1326(7) -0.0362(5)
C1B C -0.3474(7) -0.4800(7) 0.0362(5)
C1J C 0.1326(7) -0.3474(7) -0.0362(5)
H8K H 0.36060 0.44240 -0.04660
H8A H -0.08180 0.36060 0.04660
H8I H -0.44240 -0.08180 -0.04660
H8B H -0.36060 -0.44240 0.04660
H8J H 0.08180 -0.36060 -0.04660
H9K H 0.38630 0.52710 -0.05300
H9A H -0.14080 0.38630 0.05300
H9I H -0.52710 -0.14080 -0.05300
H9B H -0.38630 -0.52710 0.05300
H9J H 0.14080 -0.38630 -0.05300
C2K C 0.3478(6) 0.4867(7) 0.0360(4)
C2A C -0.1389(6) 0.3478(7) -0.0360(4)
C2I C -0.4867(6) -0.1389(7) 0.0360(4)
C2B C -0.3478(6) -0.4867(7) -0.0360(4)
C2J C 0.1389(6) -0.3478(7) 0.0360(4)
H10K H 0.36210 0.53760 0.04730
H10A H -0.17550 0.36210 -0.04730
H10I H -0.53760 -0.17550 0.04730
H10B H -0.36210 -0.53760 -0.04730
H10J H 0.17550 -0.36210 0.04730
H11K H 0.38460 0.47590 0.05360
H11A H -0.09130 0.38460 -0.05360
H11I H -0.47590 -0.09130 0.05360
H11B H -0.38460 -0.47590 -0.05360
H11J H 0.09130 -0.38460 0.05360
C3K C 0.2540(6) 0.4803(6) 0.1047(5)
C3A C -0.2263(6) 0.2540(6) -0.1047(5)
C3I C -0.4803(6) -0.2263(6) 0.1047(5)
C3B C -0.2540(6) -0.4803(6) -0.1047(5)
C3J C 0.2263(6) -0.2540(6) 0.1047(5)
H12K H 0.22650 0.45120 0.14130
H12A H -0.22470 0.22650 -0.14130
H12I H -0.45120 -0.22470 0.14130
H12B H -0.22650 -0.45120 -0.14130
H12J H 0.22470 -0.22650 0.14130
H13K H 0.29920 0.52360 0.11960
H13A H -0.22440 0.29920 -0.11960
H13I H -0.52360 -0.22440 0.11960
H13B H -0.29920 -0.52360 -0.11960
H13J H 0.22440 -0.29920 0.11960
C5K C 0.1016(5) 0.4588(7) -0.0006(5)
C5A C -0.3572(5) 0.1016(7) 0.0006(5)
C5I C -0.4588(5) -0.3572(7) -0.0006(5)
C5B C -0.1016(5) -0.4588(7) 0.0006(5)
C5J C 0.3572(5) -0.1016(7) -0.0006(5)
H16K H 0.06610 0.46500 0.02480
H16A H -0.39890 0.06610 -0.02480
H16I H -0.46500 -0.39890 0.02480
H16B H -0.06610 -0.46500 -0.02480
H16J H 0.39890 -0.06610 0.02480
H17K H 0.13330 0.50520 -0.02290
H17A H -0.37190 0.13330 0.02290
H17I H -0.50520 -0.37190 -0.02290
H17B H -0.13330 -0.50520 0.02290
H17J H 0.37190 -0.13330 -0.02290
C6K C 0.0604(6) 0.3934(5) -0.0485(5)
C6A C -0.3330(6) 0.0604(5) 0.0485(5)
C6I C -0.3934(6) -0.3330(5) -0.0485(5)
C6B C -0.0604(6) -0.3934(5) 0.0485(5)
C6J C 0.3330(6) -0.0604(5) -0.0485(5)
H18K H 0.03310 0.40610 -0.07860
H18A H -0.37300 0.03310 0.07860
H18I H -0.40610 -0.37300 -0.07860
H18B H -0.03310 -0.40610 0.07860
H18J H 0.37300 -0.03310 -0.07860
H19K H 0.02450 0.34900 -0.02580
H19A H -0.32450 0.02450 0.02580
H19I H -0.34900 -0.32450 -0.02580
H19B H -0.02450 -0.34900 0.02580
H19J H 0.32450 -0.02450 -0.02580
loop_
_geom_bond_atom_site_label_1
_geom_bond_atom_site_label_2
_geom_bond_site_symmetry_1
_geom_bond_site_symmetry_2
Zn1 O5 1_555 1_555
Zn1 N1 1_555 1_555
Zn1 N2 1_555 1_555
Zn1 N3 1_555 1_555
Zn1 N4 1_555 1_555
V1 O6 1_555 1_555
V1 O9 1_555 1_555
V1 O7K 1_555 1_555
V1 O7J 1_555 1_555
V1 O8J 1_555 1_555
V2 O4 1_555 1_555
V2 O7 1_555 1_555
V2 O8 1_555 1_555
V2 O10 1_555 1_555
V2 O6J 1_555 1_555
O1 H1 1_555 1_555
O1 B1 1_555 1_555
O2 B1 1_555 1_555
O2 B2 1_555 1_555
O3 B1 1_555 1_555
O3 B3J 1_555 1_555
O4 B2 1_555 1_555
O4 B3J 1_555 1_555
O5 B2 1_555 1_555
O5 B3 1_555 1_555
O6 B2 1_555 1_555
O6 V2K 1_555 1_555
O7 V1J 1_555 1_555
O7 V1K 1_555 1_555
O8 B3 1_555 1_555
O8 V1K 1_555 1_555
B3 O3K 1_555 1_555
B3 O4K 1_555 1_555
N1 H2 1_555 1_555
N1 H3 1_555 1_555
N1 C1 1_555 1_555
N2 H4 1_555 1_555
N2 C2 1_555 1_555
N2 C3 1_555 1_555
N3 H5 1_555 1_555
N3 C5 1_555 1_555
N4 H6 1_555 1_555
N4 H7 1_555 1_555
N4 C6 1_555 1_555
C1 H8 1_555 1_555
C1 H9 1_555 1_555
C2 H10 1_555 1_555
C2 H11 1_555 1_555
C3 H12 1_555 1_555
C3 H13 1_555 1_555
C5 H16 1_555 1_555
C5 H17 1_555 1_555
C5 C6 1_555 1_555
C6 H18 1_555 1_555
C6 H19 1_555 1_555
Zn1K O5K 1_555 1_555
Zn1K N1K 1_555 1_555
Zn1K N2K 1_555 1_555
Zn1K N3K 1_555 1_555
Zn1K N4K 1_555 1_555
Zn1A O5A 1_555 1_555
Zn1A N1A 1_555 1_555
Zn1A N2A 1_555 1_555
Zn1A N3A 1_555 1_555
Zn1A N4A 1_555 1_555
Zn1I O5I 1_555 1_555
Zn1I N1I 1_555 1_555
Zn1I N2I 1_555 1_555
Zn1I N3I 1_555 1_555
Zn1I N4I 1_555 1_555
Zn1B O5B 1_555 1_555
Zn1B N1B 1_555 1_555
Zn1B N2B 1_555 1_555
Zn1B N3B 1_555 1_555
Zn1B N4B 1_555 1_555
Zn1J O5J 1_555 1_555
Zn1J N1J 1_555 1_555
Zn1J N2J 1_555 1_555
Zn1J N3J 1_555 1_555
Zn1J N4J 1_555 1_555
V1J O6J 1_555 1_555
V1J O7B 1_555 1_555
V1J O8B 1_555 1_555
V1J O9J 1_555 1_555
V1K O6K 1_555 1_555
V1K O7A 1_555 1_555
V1K O9K 1_555 1_555
V1A O6A 1_555 1_555
V1A O7K 1_555 1_555
V1A O7I 1_555 1_555
V1A O8K 1_555 1_555
V1A O9A 1_555 1_555
V1I O6I 1_555 1_555
V1I O7B 1_555 1_555
V1I O7A 1_555 1_555
V1I O8A 1_555 1_555
V1I O9I 1_555 1_555
V1B O6B 1_555 1_555
V1B O7J 1_555 1_555
V1B O7I 1_555 1_555
V1B O8I 1_555 1_555
V1B O9B 1_555 1_555
V2A O4A 1_555 1_555
V2A O6K 1_555 1_555
V2A O7A 1_555 1_555
V2A O8A 1_555 1_555
V2A O10A 1_555 1_555
V2K O4K 1_555 1_555
V2K O7K 1_555 1_555
V2K O8K 1_555 1_555
V2K O10K 1_555 1_555
V2I O4I 1_555 1_555
V2I O6A 1_555 1_555
V2I O7I 1_555 1_555
V2I O8I 1_555 1_555
V2I O10I 1_555 1_555
V2B O4B 1_555 1_555
V2B O6I 1_555 1_555
V2B O7B 1_555 1_555
V2B O8B 1_555 1_555
V2B O10B 1_555 1_555
V2J O4J 1_555 1_555
V2J O6B 1_555 1_555
V2J O7J 1_555 1_555
V2J O8J 1_555 1_555
V2J O10J 1_555 1_555
O1A H1A 1_555 1_555
O1A B1A 1_555 1_555
O1K H1K 1_555 1_555
O1K B1K 1_555 1_555
O1I H1I 1_555 1_555
O1I B1I 1_555 1_555
O1B H1B 1_555 1_555
O1B B1B 1_555 1_555
O1J H1J 1_555 1_555
O1J B1J 1_555 1_555
O2A B1A 1_555 1_555
O2A B2A 1_555 1_555
O2K B1K 1_555 1_555
O2K B2K 1_555 1_555
O2I B1I 1_555 1_555
O2I B2I 1_555 1_555
O2B B1B 1_555 1_555
O2B B2B 1_555 1_555
O2J B1J 1_555 1_555
O2J B2J 1_555 1_555
O3A B1A 1_555 1_555
O3A B3K 1_555 1_555
O3K B1K 1_555 1_555
O3I B1I 1_555 1_555
O3I B3A 1_555 1_555
O3B B1B 1_555 1_555
O3B B3I 1_555 1_555
O3J B1J 1_555 1_555
O3J B3B 1_555 1_555
O4A B2A 1_555 1_555
O4A B3K 1_555 1_555
O4K B2K 1_555 1_555
O4I B2I 1_555 1_555
O4I B3A 1_555 1_555
O4B B2B 1_555 1_555
O4B B3I 1_555 1_555
O4J B2J 1_555 1_555
O4J B3B 1_555 1_555
O5K B2K 1_555 1_555
O5K B3K 1_555 1_555
O5A B2A 1_555 1_555
O5A B3A 1_555 1_555
O5I B2I 1_555 1_555
O5I B3I 1_555 1_555
O5B B2B 1_555 1_555
O5B B3B 1_555 1_555
O5J B2J 1_555 1_555
O5J B3J 1_555 1_555
O6J B2J 1_555 1_555
O6K B2K 1_555 1_555
O6A B2A 1_555 1_555
O6I B2I 1_555 1_555
O6B B2B 1_555 1_555
O8A B3A 1_555 1_555
O8I B3I 1_555 1_555
O8B B3B 1_555 1_555
O8J B3J 1_555 1_555
O8K B3K 1_555 1_555
N1K H2K 1_555 1_555
N1K H3K 1_555 1_555
N1K C1K 1_555 1_555
N1A H2A 1_555 1_555
N1A H3A 1_555 1_555
N1A C1A 1_555 1_555
N1I H2I 1_555 1_555
N1I H3I 1_555 1_555
N1I C1I 1_555 1_555
N1B H2B 1_555 1_555
N1B H3B 1_555 1_555
N1B C1B 1_555 1_555
N1J H2J 1_555 1_555
N1J H3J 1_555 1_555
N1J C1J 1_555 1_555
N2K H4K 1_555 1_555
N2K C2K 1_555 1_555
N2K C3K 1_555 1_555
N2A H4A 1_555 1_555
N2A C2A 1_555 1_555
N2A C3A 1_555 1_555
N2I H4I 1_555 1_555
N2I C2I 1_555 1_555
N2I C3I 1_555 1_555
N2B H4B 1_555 1_555
N2B C2B 1_555 1_555
N2B C3B 1_555 1_555
N2J H4J 1_555 1_555
N2J C2J 1_555 1_555
N2J C3J 1_555 1_555
N3K H5K 1_555 1_555
N3K C5K 1_555 1_555
N3A H5A 1_555 1_555
N3A C5A 1_555 1_555
N3I H5I 1_555 1_555
N3I C5I 1_555 1_555
N3B H5B 1_555 1_555
N3B C5B 1_555 1_555
N3J H5J 1_555 1_555
N3J C5J 1_555 1_555
N4K H6K 1_555 1_555
N4K H7K 1_555 1_555
N4K C6K 1_555 1_555
N4A H6A 1_555 1_555
N4A H7A 1_555 1_555
N4A C6A 1_555 1_555
N4I H6I 1_555 1_555
N4I H7I 1_555 1_555
N4I C6I 1_555 1_555
N4B H6B 1_555 1_555
N4B H7B 1_555 1_555
N4B C6B 1_555 1_555
N4J H6J 1_555 1_555
N4J H7J 1_555 1_555
N4J C6J 1_555 1_555
C1K H8K 1_555 1_555
C1K H9K 1_555 1_555
C1A H8A 1_555 1_555
C1A H9A 1_555 1_555
C1I H8I 1_555 1_555
C1I H9I 1_555 1_555
C1B H8B 1_555 1_555
C1B H9B 1_555 1_555
C1J H8J 1_555 1_555
C1J H9J 1_555 1_555
C2K H10K 1_555 1_555
C2K H11K 1_555 1_555
C2A H10A 1_555 1_555
C2A H11A 1_555 1_555
C2I H10I 1_555 1_555
C2I H11I 1_555 1_555
C2B H10B 1_555 1_555
C2B H11B 1_555 1_555
C2J H10J 1_555 1_555
C2J H11J 1_555 1_555
C3K H12K 1_555 1_555
C3K H13K 1_555 1_555
C3A H12A 1_555 1_555
C3A H13A 1_555 1_555
C3I H12I 1_555 1_555
C3I H13I 1_555 1_555
C3B H12B 1_555 1_555
C3B H13B 1_555 1_555
C3J H12J 1_555 1_555
C3J H13J 1_555 1_555
C5K H16K 1_555 1_555
C5K H17K 1_555 1_555
C5K C6K 1_555 1_555
C5A H16A 1_555 1_555
C5A H17A 1_555 1_555
C5A C6A 1_555 1_555
C5I H16I 1_555 1_555
C5I H17I 1_555 1_555
C5I C6I 1_555 1_555
C5B H16B 1_555 1_555
C5B H17B 1_555 1_555
C5B C6B 1_555 1_555
C5J H16J 1_555 1_555
C5J H17J 1_555 1_555
C5J C6J 1_555 1_555
C6K H18K 1_555 1_555
C6K H19K 1_555 1_555
C6A H18A 1_555 1_555
C6A H19A 1_555 1_555
C6I H18I 1_555 1_555
C6I H19I 1_555 1_555
C6B H18B 1_555 1_555
C6B H19B 1_555 1_555
C6J H18J 1_555 1_555
C6J H19J 1_555 1_555

#END
