
#######################################################################
#
#                 Cambridge Crystallographic Data Centre
#                                CCDC 
#
#######################################################################
#
# If this CIF has been generated from an entry in the Cambridge 
# Structural Database, then it will include bibliographic, chemical, 
# crystal, experimental, refinement or atomic coordinate data resulting 
# from the CCDC's data processing and validation procedures.
#
#######################################################################

data_FUBMIY
_chemical_formula_moiety         'C48 H56 Mn4 N12 O4 4+,4(Cl1 O4 1-),2(H2 O1)'
_chemical_name_systematic        
'(2,8,14,20,26,32,38,44-Octamethyl-1,45;9,13;21,25;33,37-tetranitrilo-3,7,15,19,27,31,39,43-octa-azaoctatetraconta-2,7,9,11,14,19,21,23,26,31,33,35,38,43-tetradecene-5,17,29,41-tetraolato)-tetra-manganese tetraperchlorate dihydrate'
_symmetry_cell_setting           monoclinic
_symmetry_space_group_name_H-M   'C 2/c'
_symmetry_Int_Tables_number      15
_space_group_name_Hall           '-C 2yc'
loop_
_symmetry_equiv_pos_site_id
_symmetry_equiv_pos_as_xyz
1 x,y,z
2 1/2+x,1/2+y,z
3 -x,y,1/2-z
4 1/2-x,1/2+y,1/2-z
5 -x,-y,-z
6 1/2-x,1/2-y,-z
7 x,-y,1/2+z
8 1/2+x,1/2-y,1/2+z
_cell_length_a                   20.209(10)
_cell_length_b                   14.241(3)
_cell_length_c                   20.596(9)
_cell_angle_alpha                90
_cell_angle_beta                 91.07(4)
_cell_angle_gamma                90
_cell_volume                     5926.42
_exptl_crystal_colour            orange
_cell_formula_units_Z            4
loop_
_atom_site_label
_atom_site_type_symbol
_atom_site_fract_x
_atom_site_fract_y
_atom_site_fract_z
Mn1 Mn 0.5850(1) 0.3837(1) 0.2462(1)
Mn2 Mn 0.4946(1) 0.2242(1) 0.1663(1)
N1 N 0.6509(1) 0.4924(2) 0.1995(1)
N2 N 0.6605(1) 0.3127(2) 0.1806(1)
N3 N 0.5475(1) 0.0796(2) 0.1776(1)
N4 N 0.4499(1) 0.1153(2) 0.0973(1)
N5 N 0.4296(1) 0.2945(2) 0.0884(1)
N6 N 0.5743(1) 0.5275(2) 0.2967(1)
C1 C 0.6486(1) 0.5824(2) 0.2188(1)
C2 C 0.6878(2) 0.6509(2) 0.1906(1)
C3 C 0.7296(2) 0.6241(2) 0.1410(2)
C4 C 0.7330(2) 0.5310(2) 0.1225(1)
C5 C 0.6929(1) 0.4655(2) 0.1537(1)
C6 C 0.6972(1) 0.3614(2) 0.1439(1)
C7 C 0.7462(2) 0.3232(3) 0.0967(2)
C8 C 0.6632(1) 0.2108(2) 0.1816(1)
C9 C 0.6249(1) 0.1738(2) 0.2400(1)
C10 C 0.6018(1) 0.0736(2) 0.2263(1)
C11 C 0.5236(1) 0.0065(2) 0.1500(1)
C12 C 0.5451(2) -0.0929(2) 0.1622(2)
C13 C 0.4688(1) 0.0256(2) 0.1009(2)
C14 C 0.4407(2) -0.0440(2) 0.0612(2)
C15 C 0.3920(2) -0.0167(2) 0.0162(2)
C16 C 0.3745(2) 0.0768(2) 0.0110(1)
C17 C 0.4050(1) 0.1424(2) 0.0520(1)
C18 C 0.3945(1) 0.2462(2) 0.0483(1)
C19 C 0.3485(2) 0.2869(3) -0.0021(2)
C20 C 0.4296(1) 0.3967(2) 0.0865(1)
C21 C 0.4882(1) 0.4342(2) 0.1275(1)
C22 C 0.5268(1) 0.5335(2) 0.3498(1)
C23 C 0.6022(1) 0.6003(2) 0.2737(1)
C24 C 0.5927(2) 0.6990(2) 0.2973(2)
O1 O 0.5690(1) 0.2317(1) 0.2518(1)
O2 O 0.5002(1) 0.3750(1) 0.1825(1)
H1 H 0.68600 0.71490 0.20490
H2 H 0.75620 0.67030 0.11970
H3 H 0.76230 0.51160 0.08890
H4 H 0.76770 0.37430 0.07520
H5 H 0.72360 0.28470 0.06520
H6 H 0.77870 0.28620 0.11970
H7 H 0.64360 0.18650 0.14220
H8 H 0.70850 0.19070 0.18510
H9 H 0.65360 0.17470 0.27770
H10 H 0.58630 0.04510 0.26540
H11 H 0.63760 0.03710 0.20960
H12 H 0.51930 -0.13460 0.13530
H13 H 0.53860 -0.10830 0.20700
H14 H 0.59100 -0.09940 0.15220
H15 H 0.45460 -0.10830 0.06470
H16 H 0.37060 -0.06270 -0.01100
H17 H 0.34170 0.09640 -0.02060
H18 H 0.32770 0.23700 -0.02630
H19 H 0.37300 0.32600 -0.03100
H20 H 0.31520 0.32370 0.01870
H21 H 0.43370 0.41740 0.04240
H22 H 0.38890 0.41990 0.10380
H23 H 0.52710 0.43490 0.10140
H24 H 0.54570 0.56920 0.38510
H25 H 0.48690 0.56320 0.33450
H26 H 0.61900 0.74100 0.27210
H27 H 0.60610 0.70300 0.34220
H28 H 0.54690 0.71600 0.29270
O2B O 0.4998(1) 0.3750(1) 0.3175(1)
O1B O 0.4310(1) 0.2317(1) 0.2482(1)
C22B C 0.4732(1) 0.5335(2) 0.1502(1)
C21B C 0.5118(1) 0.4342(2) 0.3725(1)
Mn2B Mn 0.5054(1) 0.2242(1) 0.3337(1)
Mn1B Mn 0.4150(1) 0.3837(1) 0.2538(1)
C9B C 0.3751(1) 0.1738(2) 0.2600(1)
N6B N 0.4257(1) 0.5275(2) 0.2033(1)
H24B H 0.45430 0.56920 0.11490
H25B H 0.51310 0.56320 0.16550
C20B C 0.5704(1) 0.3967(2) 0.4135(1)
H23B H 0.47290 0.43490 0.39860
N3B N 0.4525(1) 0.0796(2) 0.3224(1)
N4B N 0.5501(1) 0.1153(2) 0.4027(1)
N5B N 0.5704(1) 0.2945(2) 0.4116(1)
N1B N 0.3491(1) 0.4924(2) 0.3005(1)
N2B N 0.3395(1) 0.3127(2) 0.3194(1)
C8B C 0.3368(1) 0.2108(2) 0.3184(1)
C10B C 0.3982(1) 0.0736(2) 0.2737(1)
H9B H 0.34640 0.17470 0.22230
C23B C 0.3978(1) 0.6003(2) 0.2263(1)
H21B H 0.56630 0.41740 0.45760
H22B H 0.61110 0.41990 0.39620
C11B C 0.4764(1) 0.0065(2) 0.3500(1)
C13B C 0.5312(1) 0.0256(2) 0.3991(2)
C17B C 0.5950(1) 0.1424(2) 0.4480(1)
C18B C 0.6055(1) 0.2462(2) 0.4517(1)
C1B C 0.3514(1) 0.5824(2) 0.2812(1)
C5B C 0.3071(1) 0.4655(2) 0.3463(1)
C6B C 0.3028(1) 0.3614(2) 0.3561(1)
H7B H 0.35640 0.18650 0.35780
H8B H 0.29150 0.19070 0.31490
H10B H 0.41370 0.04510 0.23460
H11B H 0.36240 0.03710 0.29040
C24B C 0.4073(2) 0.6990(2) 0.2027(2)
C12B C 0.4549(2) -0.0929(2) 0.3378(2)
C14B C 0.5593(2) -0.0440(2) 0.4388(2)
C16B C 0.6255(2) 0.0768(2) 0.4890(1)
C19B C 0.6515(2) 0.2869(3) 0.5021(2)
C2B C 0.3122(2) 0.6509(2) 0.3094(1)
C4B C 0.2670(2) 0.5310(2) 0.3775(1)
C7B C 0.2538(2) 0.3232(3) 0.4033(2)
H26B H 0.38100 0.74100 0.22790
H27B H 0.39390 0.70300 0.15780
H28B H 0.45310 0.71600 0.20730
H12B H 0.48070 -0.13460 0.36470
H13B H 0.46140 -0.10830 0.29300
H14B H 0.40900 -0.09940 0.34780
C15B C 0.6080(2) -0.0167(2) 0.4838(2)
H15B H 0.54540 -0.10830 0.43530
H17B H 0.65830 0.09640 0.52060
H18B H 0.67230 0.23700 0.52630
H19B H 0.62700 0.32600 0.53100
H20B H 0.68480 0.32370 0.48130
C3B C 0.2704(2) 0.6241(2) 0.3590(2)
H1B H 0.31400 0.71490 0.29510
H3B H 0.23770 0.51160 0.41110
H4B H 0.23230 0.37430 0.42480
H5B H 0.27640 0.28470 0.43480
H6B H 0.22130 0.28620 0.38030
H16B H 0.62940 -0.06270 0.51100
H2B H 0.24380 0.67030 0.38030
loop_
_geom_bond_atom_site_label_1
_geom_bond_atom_site_label_2
_geom_bond_site_symmetry_1
_geom_bond_site_symmetry_2
Mn1 N1 1_555 1_555
Mn1 N2 1_555 1_555
Mn1 N6 1_555 1_555
Mn1 O1 1_555 1_555
Mn1 O2 1_555 1_555
Mn1 O2B 1_555 1_555
Mn2 N3 1_555 1_555
Mn2 N4 1_555 1_555
Mn2 N5 1_555 1_555
Mn2 O1 1_555 1_555
Mn2 O2 1_555 1_555
Mn2 O1B 1_555 1_555
N1 C1 1_555 1_555
N1 C5 1_555 1_555
N2 C6 1_555 1_555
N2 C8 1_555 1_555
N3 C10 1_555 1_555
N3 C11 1_555 1_555
N4 C13 1_555 1_555
N4 C17 1_555 1_555
N5 C18 1_555 1_555
N5 C20 1_555 1_555
N6 C22 1_555 1_555
N6 C23 1_555 1_555
C1 C2 1_555 1_555
C1 C23 1_555 1_555
C2 C3 1_555 1_555
C2 H1 1_555 1_555
C3 C4 1_555 1_555
C3 H2 1_555 1_555
C4 C5 1_555 1_555
C4 H3 1_555 1_555
C5 C6 1_555 1_555
C6 C7 1_555 1_555
C7 H4 1_555 1_555
C7 H5 1_555 1_555
C7 H6 1_555 1_555
C8 C9 1_555 1_555
C8 H7 1_555 1_555
C8 H8 1_555 1_555
C9 C10 1_555 1_555
C9 O1 1_555 1_555
C9 H9 1_555 1_555
C10 H10 1_555 1_555
C10 H11 1_555 1_555
C11 C12 1_555 1_555
C11 C13 1_555 1_555
C12 H12 1_555 1_555
C12 H13 1_555 1_555
C12 H14 1_555 1_555
C13 C14 1_555 1_555
C14 C15 1_555 1_555
C14 H15 1_555 1_555
C15 C16 1_555 1_555
C15 H16 1_555 1_555
C16 C17 1_555 1_555
C16 H17 1_555 1_555
C17 C18 1_555 1_555
C18 C19 1_555 1_555
C19 H18 1_555 1_555
C19 H19 1_555 1_555
C19 H20 1_555 1_555
C20 C21 1_555 1_555
C20 H21 1_555 1_555
C20 H22 1_555 1_555
C21 O2 1_555 1_555
C21 H23 1_555 1_555
C21 C22B 1_555 1_555
C22 H24 1_555 1_555
C22 H25 1_555 1_555
C22 C21B 1_555 1_555
C23 C24 1_555 1_555
C24 H26 1_555 1_555
C24 H27 1_555 1_555
C24 H28 1_555 1_555
O1 Mn2B 1_555 1_555
O2 Mn1B 1_555 1_555
O2B C21B 1_555 1_555
O2B Mn2B 1_555 1_555
O2B Mn1B 1_555 1_555
O1B Mn2B 1_555 1_555
O1B Mn1B 1_555 1_555
O1B C9B 1_555 1_555
C22B N6B 1_555 1_555
C22B H24B 1_555 1_555
C22B H25B 1_555 1_555
C21B C20B 1_555 1_555
C21B H23B 1_555 1_555
Mn2B N3B 1_555 1_555
Mn2B N4B 1_555 1_555
Mn2B N5B 1_555 1_555
Mn1B N6B 1_555 1_555
Mn1B N1B 1_555 1_555
Mn1B N2B 1_555 1_555
C9B C8B 1_555 1_555
C9B C10B 1_555 1_555
C9B H9B 1_555 1_555
N6B C23B 1_555 1_555
C20B N5B 1_555 1_555
C20B H21B 1_555 1_555
C20B H22B 1_555 1_555
N3B C10B 1_555 1_555
N3B C11B 1_555 1_555
N4B C13B 1_555 1_555
N4B C17B 1_555 1_555
N5B C18B 1_555 1_555
N1B C1B 1_555 1_555
N1B C5B 1_555 1_555
N2B C8B 1_555 1_555
N2B C6B 1_555 1_555
C8B H7B 1_555 1_555
C8B H8B 1_555 1_555
C10B H10B 1_555 1_555
C10B H11B 1_555 1_555
C23B C1B 1_555 1_555
C23B C24B 1_555 1_555
C11B C13B 1_555 1_555
C11B C12B 1_555 1_555
C13B C14B 1_555 1_555
C17B C18B 1_555 1_555
C17B C16B 1_555 1_555
C18B C19B 1_555 1_555
C1B C2B 1_555 1_555
C5B C6B 1_555 1_555
C5B C4B 1_555 1_555
C6B C7B 1_555 1_555
C24B H26B 1_555 1_555
C24B H27B 1_555 1_555
C24B H28B 1_555 1_555
C12B H12B 1_555 1_555
C12B H13B 1_555 1_555
C12B H14B 1_555 1_555
C14B C15B 1_555 1_555
C14B H15B 1_555 1_555
C16B C15B 1_555 1_555
C16B H17B 1_555 1_555
C19B H18B 1_555 1_555
C19B H19B 1_555 1_555
C19B H20B 1_555 1_555
C2B C3B 1_555 1_555
C2B H1B 1_555 1_555
C4B C3B 1_555 1_555
C4B H3B 1_555 1_555
C7B H4B 1_555 1_555
C7B H5B 1_555 1_555
C7B H6B 1_555 1_555
C15B H16B 1_555 1_555
C3B H2B 1_555 1_555

#END
