
#######################################################################
#
#                 Cambridge Crystallographic Data Centre
#                                CCDC 
#
#######################################################################
#
# If this CIF has been generated from an entry in the Cambridge 
# Structural Database, then it will include bibliographic, chemical, 
# crystal, experimental, refinement or atomic coordinate data resulting 
# from the CCDC's data processing and validation procedures.
#
#######################################################################

data_HEFJIP
_chemical_formula_moiety         
'C74 H110 Cu4 N18 O2 8+,2(C1 H4 O1),8(N1 O3 1-),2(H2 O1)'
_chemical_name_systematic        
'(\m-3,9,17,23,31,37,45,51,59,65,73,79,85,86,87,88,89,90-octadeca-azatridecacyclo[79.3.1.1^11,15^.1^25,29^.1^39,43^.1^53,57^.1^67,71^.0^4,8^.0^18,22^.0^32,36^.0^46,50^.0^60,64^.0^74,78^]nonaconta-1(85),11(90),12,14,25(89),26,28,39(88),40,42,53(87),54,56,67(86),68,70,81,83-octadecaene)-bis(methanol)-tetra-copper octanitrate methanol solvate dihydrate'
_symmetry_cell_setting           monoclinic
_symmetry_space_group_name_H-M   'P 21/n'
_symmetry_Int_Tables_number      14
_space_group_name_Hall           '-P 2yn'
loop_
_symmetry_equiv_pos_site_id
_symmetry_equiv_pos_as_xyz
1 x,y,z
2 1/2-x,1/2+y,1/2-z
3 -x,-y,-z
4 1/2+x,1/2-y,1/2+z
_cell_length_a                   11.371(2)
_cell_length_b                   24.469(4)
_cell_length_c                   16.157(2)
_cell_angle_alpha                90
_cell_angle_beta                 90.98(2)
_cell_angle_gamma                90
_cell_volume                     4494.82
_exptl_crystal_colour            'dark blue'
_exptl_crystal_description       block
_cell_formula_units_Z            2
loop_
_atom_site_label
_atom_site_type_symbol
_atom_site_fract_x
_atom_site_fract_y
_atom_site_fract_z
Cu1 Cu 0.64789(5) 0.39620(2) 0.23251(3)
Cu2 Cu 0.69876(5) 0.39737(2) 0.66726(3)
N1 N 0.6135(3) 0.38597(15) 0.1092(2)
H1 H 0.62640 0.42170 0.08060
N2 N 0.7871(3) 0.35517(14) 0.2049(2)
N3 N 0.7125(3) 0.38642(14) 0.3516(2)
H2 H 0.70820 0.42320 0.37850
N4 N 0.6271(3) 0.39500(12) 0.54827(19)
H3 H 0.64490 0.43060 0.52070
N5 N 0.5495(3) 0.36585(13) 0.6950(2)
N6 N 0.7371(3) 0.37959(15) 0.7898(2)
H4 H 0.73640 0.41430 0.82250
N7 N 0.8738(3) 0.39772(13) 0.6492(2)
H5 H 0.89640 0.36300 0.62100
N8 N 0.7407(3) 0.49294(13) 0.6550(2)
N9 N 0.5251(3) 0.58416(14) 0.7550(2)
H6 H 0.56270 0.61660 0.72850
C1 C 0.2900(5) 0.3867(2) 0.0513(3)
H7 H 0.24540 0.35190 0.04830
H8 H 0.25040 0.41380 0.01480
C2 C 0.4179(5) 0.3777(2) 0.0244(3)
H9 H 0.42540 0.34350 -0.00800
H10 H 0.44600 0.40870 -0.00930
C3 C 0.4866(4) 0.37380(18) 0.1069(3)
H11 H 0.47280 0.33720 0.13240
C4 C 0.6930(4) 0.34460(19) 0.0728(3)
H12 H 0.71770 0.35690 0.01740
H13 H 0.65040 0.30950 0.06610
C5 C 0.8004(4) 0.33620(17) 0.1280(3)
C6 C 0.9029(4) 0.30997(18) 0.1068(3)
H14 H 0.91270 0.29650 0.05230
C7 C 0.9910(4) 0.30358(18) 0.1658(3)
H15 H 1.06250 0.28610 0.15180
C8 C 0.9750(4) 0.32270(18) 0.2455(3)
H16 H 1.03460 0.31830 0.28690
C9 C 0.8705(4) 0.34829(17) 0.2633(3)
C10 C 0.8399(4) 0.3727(2) 0.3464(3)
H17 H 0.86100 0.34640 0.39080
H18 H 0.88700 0.40630 0.35560
C11 C 0.6445(4) 0.34803(16) 0.4053(2)
H19 H 0.55920 0.35760 0.40010
C12 C 0.6590(5) 0.28734(17) 0.3815(3)
H20 H 0.58430 0.27280 0.35810
H21 H 0.72080 0.28330 0.33950
C13 C 0.6933(5) 0.25665(18) 0.4600(3)
H22 H 0.77940 0.25050 0.46280
H23 H 0.65290 0.22090 0.46210
C14 C 0.6545(4) 0.29327(16) 0.5307(3)
H24 H 0.70000 0.28550 0.58210
H25 H 0.56960 0.28870 0.54150
C15 C 0.6809(4) 0.35037(15) 0.4983(2)
H26 H 0.76810 0.35540 0.50120
C16 C 0.4966(4) 0.39074(16) 0.5566(2)
H27 H 0.46350 0.36950 0.50960
H28 H 0.46160 0.42780 0.55470
C17 C 0.4650(4) 0.36342(15) 0.6366(2)
C18 C 0.3588(4) 0.33778(16) 0.6520(3)
H29 H 0.29830 0.33610 0.61070
C19 C 0.3436(4) 0.31451(17) 0.7297(3)
H30 H 0.27090 0.29750 0.74250
C20 C 0.4337(4) 0.31588(17) 0.7889(3)
H31 H 0.42390 0.29940 0.84160
C21 C 0.5382(4) 0.34175(17) 0.7697(2)
C22 C 0.6464(4) 0.34187(19) 0.8231(3)
H32 H 0.67890 0.30440 0.82630
H33 H 0.62600 0.35340 0.87980
C23 C 0.8588(4) 0.35890(17) 0.7871(3)
H34 H 0.85750 0.32250 0.75900
C24 C 0.9334(4) 0.3540(2) 0.8658(3)
H35 H 0.92760 0.31670 0.88940
H36 H 0.90770 0.38070 0.90780
C25 C 1.0600(5) 0.3661(3) 0.8388(3)
H37 H 1.11120 0.33390 0.84910
H38 H 1.09260 0.39760 0.87000
C26 C 1.0532(4) 0.3792(2) 0.7452(3)
H39 H 1.10960 0.40830 0.73050
H40 H 1.06910 0.34630 0.71150
C27 C 0.9268(4) 0.39838(17) 0.7335(3)
H41 H 0.91930 0.43600 0.75690
C28 C 0.9111(4) 0.44415(16) 0.5984(3)
H42 H 0.89850 0.43500 0.53920
H43 H 0.99640 0.45040 0.60760
C29 C 0.8449(4) 0.49633(16) 0.6180(2)
C30 C 0.8928(4) 0.54536(17) 0.5912(3)
H44 H 0.96820 0.54640 0.56680
C31 C 0.8280(4) 0.59245(17) 0.6008(3)
H45 H 0.85770 0.62650 0.58220
C32 C 0.7204(4) 0.58977(18) 0.6375(3)
H46 H 0.67440 0.62190 0.64380
C33 C 0.6794(4) 0.53983(16) 0.6652(2)
C34 C 0.5609(4) 0.53556(16) 0.7047(3)
H47 H 0.50080 0.52960 0.66050
H48 H 0.56080 0.50290 0.74090
C35 C 0.5726(4) 0.58228(18) 0.8415(3)
H49 H 0.55190 0.54590 0.86540
C36 C 0.7034(4) 0.5918(2) 0.8571(3)
H50 H 0.73460 0.61930 0.81820
H51 H 0.74840 0.55740 0.85130
O1 O 0.7233(3) 0.48113(12) 0.2221(2)
H52 H 0.78530 0.47850 0.19480
C37 C 0.6690(5) 0.5327(2) 0.2054(3)
H53 H 0.64360 0.54920 0.25740
H54 H 0.60060 0.52740 0.16850
H55 H 0.72550 0.55700 0.17870
N1B N 0.3865(3) 0.61403(15) 0.8908(2)
H1B H 0.37360 0.57830 0.91940
N2B N 0.2129(3) 0.64483(14) 0.7951(2)
N3B N 0.2875(3) 0.61358(14) 0.6484(2)
H2B H 0.29180 0.57680 0.62150
N4B N 0.3729(3) 0.60500(12) 0.45173(19)
H3B H 0.35510 0.56940 0.47930
N5B N 0.4505(3) 0.63415(13) 0.3050(2)
N6B N 0.2629(3) 0.62041(15) 0.2102(2)
H4B H 0.26360 0.58570 0.17750
N7B N 0.1262(3) 0.60228(13) 0.3508(2)
H5B H 0.10360 0.63700 0.37900
N8B N 0.2593(3) 0.50706(13) 0.3450(2)
N9B N 0.4749(3) 0.41584(14) 0.2450(2)
H6B H 0.43730 0.38340 0.27150
C1B C 0.7100(5) 0.6133(2) 0.9487(3)
H7B H 0.75460 0.64810 0.95170
H8B H 0.74960 0.58620 0.98520
C2B C 0.5821(5) 0.6223(2) 0.9756(3)
H9B H 0.57460 0.65650 1.00800
H10B H 0.55400 0.59130 1.00930
C3B C 0.5134(4) 0.62620(18) 0.8931(3)
H11B H 0.52720 0.66280 0.86760
C4B C 0.3070(4) 0.65540(19) 0.9272(3)
H12B H 0.28230 0.64310 0.98260
H13B H 0.34960 0.69050 0.93390
C5B C 0.1996(4) 0.66380(17) 0.8720(3)
C6B C 0.0971(4) 0.69003(18) 0.8932(3)
H14B H 0.08730 0.70350 0.94770
C7B C 0.0090(4) 0.69642(18) 0.8342(3)
H15B H -0.06250 0.71390 0.84820
C8B C 0.0250(4) 0.67730(18) 0.7545(3)
H16B H -0.03460 0.68170 0.71310
C9B C 0.1295(4) 0.65171(17) 0.7367(3)
C10B C 0.1601(4) 0.6273(2) 0.6536(3)
H17B H 0.13900 0.65360 0.60920
H18B H 0.11300 0.59370 0.64440
C11B C 0.3555(4) 0.65197(16) 0.5947(2)
H19B H 0.44080 0.64240 0.59990
C12B C 0.3410(5) 0.71266(17) 0.6185(3)
H20B H 0.41570 0.72720 0.64190
H21B H 0.27920 0.71670 0.66050
C13B C 0.3067(5) 0.74335(18) 0.5400(3)
H22B H 0.22060 0.74950 0.53720
H23B H 0.34710 0.77910 0.53790
C14B C 0.3455(4) 0.70673(16) 0.4693(3)
H24B H 0.30000 0.71450 0.41790
H25B H 0.43040 0.71130 0.45850
C15B C 0.3191(4) 0.64963(15) 0.5017(2)
H26B H 0.23190 0.64460 0.49880
C16B C 0.5034(4) 0.60926(16) 0.4434(2)
H27B H 0.53650 0.63050 0.49040
H28B H 0.53840 0.57220 0.44530
C17B C 0.5350(4) 0.63658(15) 0.3634(2)
C18B C 0.6412(4) 0.66222(16) 0.3480(3)
H29B H 0.70170 0.66390 0.38930
C19B C 0.6564(4) 0.68549(17) 0.2703(3)
H30B H 0.72910 0.70250 0.25750
C20B C 0.5663(4) 0.68412(17) 0.2111(3)
H31B H 0.57610 0.70060 0.15840
C21B C 0.4618(4) 0.65825(17) 0.2303(2)
C22B C 0.3536(4) 0.65813(19) 0.1769(3)
H32B H 0.32110 0.69560 0.17370
H33B H 0.37400 0.64660 0.12020
C23B C 0.1412(4) 0.64110(17) 0.2129(3)
H34B H 0.14250 0.67750 0.24100
C24B C 0.0666(4) 0.6460(2) 0.1342(3)
H35B H 0.07240 0.68330 0.11060
H36B H 0.09230 0.61930 0.09220
C25B C -0.0600(5) 0.6339(3) 0.1612(3)
H37B H -0.11120 0.66610 0.15090
H38B H -0.09260 0.60240 0.13000
C26B C -0.0532(4) 0.6208(2) 0.2548(3)
H39B H -0.10960 0.59170 0.26950
H40B H -0.06910 0.65370 0.28850
C27B C 0.0732(4) 0.60162(17) 0.2665(3)
H41B H 0.08070 0.56400 0.24310
C28B C 0.0889(4) 0.55585(16) 0.4016(3)
H42B H 0.10150 0.56500 0.46080
H43B H 0.00360 0.54960 0.39240
C29B C 0.1551(4) 0.50367(16) 0.3820(2)
C30B C 0.1072(4) 0.45464(17) 0.4088(3)
H44B H 0.03180 0.45360 0.43320
C31B C 0.1720(4) 0.40755(17) 0.3992(3)
H45B H 0.14230 0.37350 0.41780
C32B C 0.2796(4) 0.41023(18) 0.3625(3)
H46B H 0.32560 0.37810 0.35620
C33B C 0.3206(4) 0.46017(16) 0.3348(2)
C34B C 0.4391(4) 0.46444(16) 0.2953(3)
H47B H 0.49920 0.47040 0.33950
H48B H 0.43920 0.49710 0.25910
C35B C 0.4274(4) 0.41772(18) 0.1585(3)
H49B H 0.44810 0.45410 0.13460
C36B C 0.2966(4) 0.4082(2) 0.1429(3)
H50B H 0.26540 0.38070 0.18180
H51B H 0.25160 0.44260 0.14870
Cu1B Cu 0.35211(5) 0.60380(2) 0.76749(3)
Cu2B Cu 0.30124(5) 0.60263(2) 0.33274(3)
O1B O 0.2767(3) 0.51887(12) 0.7779(2)
H52B H 0.21470 0.52150 0.80520
C37B C 0.3310(5) 0.4673(2) 0.7946(3)
H53B H 0.35640 0.45080 0.74260
H54B H 0.39940 0.47260 0.83150
H55B H 0.27450 0.44300 0.82130
loop_
_geom_bond_atom_site_label_1
_geom_bond_atom_site_label_2
_geom_bond_site_symmetry_1
_geom_bond_site_symmetry_2
Cu1 N1 1_555 1_555
Cu1 N2 1_555 1_555
Cu1 N3 1_555 1_555
Cu1 O1 1_555 1_555
Cu1 N9B 1_555 1_555
Cu2 N4 1_555 1_555
Cu2 N5 1_555 1_555
Cu2 N6 1_555 1_555
Cu2 N7 1_555 1_555
Cu2 N8 1_555 1_555
N1 H1 1_555 1_555
N1 C3 1_555 1_555
N1 C4 1_555 1_555
N2 C5 1_555 1_555
N2 C9 1_555 1_555
N3 H2 1_555 1_555
N3 C10 1_555 1_555
N3 C11 1_555 1_555
N4 H3 1_555 1_555
N4 C15 1_555 1_555
N4 C16 1_555 1_555
N5 C17 1_555 1_555
N5 C21 1_555 1_555
N6 H4 1_555 1_555
N6 C22 1_555 1_555
N6 C23 1_555 1_555
N7 H5 1_555 1_555
N7 C27 1_555 1_555
N7 C28 1_555 1_555
N8 C29 1_555 1_555
N8 C33 1_555 1_555
N9 H6 1_555 1_555
N9 C34 1_555 1_555
N9 C35 1_555 1_555
N9 Cu1B 1_555 1_555
C1 H7 1_555 1_555
C1 H8 1_555 1_555
C1 C2 1_555 1_555
C1 C36B 1_555 1_555
C2 H9 1_555 1_555
C2 H10 1_555 1_555
C2 C3 1_555 1_555
C3 H11 1_555 1_555
C3 C35B 1_555 1_555
C4 H12 1_555 1_555
C4 H13 1_555 1_555
C4 C5 1_555 1_555
C5 C6 1_555 1_555
C6 H14 1_555 1_555
C6 C7 1_555 1_555
C7 H15 1_555 1_555
C7 C8 1_555 1_555
C8 H16 1_555 1_555
C8 C9 1_555 1_555
C9 C10 1_555 1_555
C10 H17 1_555 1_555
C10 H18 1_555 1_555
C11 H19 1_555 1_555
C11 C12 1_555 1_555
C11 C15 1_555 1_555
C12 H20 1_555 1_555
C12 H21 1_555 1_555
C12 C13 1_555 1_555
C13 H22 1_555 1_555
C13 H23 1_555 1_555
C13 C14 1_555 1_555
C14 H24 1_555 1_555
C14 H25 1_555 1_555
C14 C15 1_555 1_555
C15 H26 1_555 1_555
C16 H27 1_555 1_555
C16 H28 1_555 1_555
C16 C17 1_555 1_555
C17 C18 1_555 1_555
C18 H29 1_555 1_555
C18 C19 1_555 1_555
C19 H30 1_555 1_555
C19 C20 1_555 1_555
C20 H31 1_555 1_555
C20 C21 1_555 1_555
C21 C22 1_555 1_555
C22 H32 1_555 1_555
C22 H33 1_555 1_555
C23 H34 1_555 1_555
C23 C24 1_555 1_555
C23 C27 1_555 1_555
C24 H35 1_555 1_555
C24 H36 1_555 1_555
C24 C25 1_555 1_555
C25 H37 1_555 1_555
C25 H38 1_555 1_555
C25 C26 1_555 1_555
C26 H39 1_555 1_555
C26 H40 1_555 1_555
C26 C27 1_555 1_555
C27 H41 1_555 1_555
C28 H42 1_555 1_555
C28 H43 1_555 1_555
C28 C29 1_555 1_555
C29 C30 1_555 1_555
C30 H44 1_555 1_555
C30 C31 1_555 1_555
C31 H45 1_555 1_555
C31 C32 1_555 1_555
C32 H46 1_555 1_555
C32 C33 1_555 1_555
C33 C34 1_555 1_555
C34 H47 1_555 1_555
C34 H48 1_555 1_555
C35 H49 1_555 1_555
C35 C36 1_555 1_555
C35 C3B 1_555 1_555
C36 H50 1_555 1_555
C36 H51 1_555 1_555
C36 C1B 1_555 1_555
O1 H52 1_555 1_555
O1 C37 1_555 1_555
C37 H53 1_555 1_555
C37 H54 1_555 1_555
C37 H55 1_555 1_555
N1B H1B 1_555 1_555
N1B C3B 1_555 1_555
N1B C4B 1_555 1_555
N1B Cu1B 1_555 1_555
N2B C5B 1_555 1_555
N2B C9B 1_555 1_555
N2B Cu1B 1_555 1_555
N3B H2B 1_555 1_555
N3B C10B 1_555 1_555
N3B C11B 1_555 1_555
N3B Cu1B 1_555 1_555
N4B H3B 1_555 1_555
N4B C15B 1_555 1_555
N4B C16B 1_555 1_555
N4B Cu2B 1_555 1_555
N5B C17B 1_555 1_555
N5B C21B 1_555 1_555
N5B Cu2B 1_555 1_555
N6B H4B 1_555 1_555
N6B C22B 1_555 1_555
N6B C23B 1_555 1_555
N6B Cu2B 1_555 1_555
N7B H5B 1_555 1_555
N7B C27B 1_555 1_555
N7B C28B 1_555 1_555
N7B Cu2B 1_555 1_555
N8B C29B 1_555 1_555
N8B C33B 1_555 1_555
N8B Cu2B 1_555 1_555
N9B H6B 1_555 1_555
N9B C34B 1_555 1_555
N9B C35B 1_555 1_555
C1B H7B 1_555 1_555
C1B H8B 1_555 1_555
C1B C2B 1_555 1_555
C2B H9B 1_555 1_555
C2B H10B 1_555 1_555
C2B C3B 1_555 1_555
C3B H11B 1_555 1_555
C4B H12B 1_555 1_555
C4B H13B 1_555 1_555
C4B C5B 1_555 1_555
C5B C6B 1_555 1_555
C6B H14B 1_555 1_555
C6B C7B 1_555 1_555
C7B H15B 1_555 1_555
C7B C8B 1_555 1_555
C8B H16B 1_555 1_555
C8B C9B 1_555 1_555
C9B C10B 1_555 1_555
C10B H17B 1_555 1_555
C10B H18B 1_555 1_555
C11B H19B 1_555 1_555
C11B C12B 1_555 1_555
C11B C15B 1_555 1_555
C12B H20B 1_555 1_555
C12B H21B 1_555 1_555
C12B C13B 1_555 1_555
C13B H22B 1_555 1_555
C13B H23B 1_555 1_555
C13B C14B 1_555 1_555
C14B H24B 1_555 1_555
C14B H25B 1_555 1_555
C14B C15B 1_555 1_555
C15B H26B 1_555 1_555
C16B H27B 1_555 1_555
C16B H28B 1_555 1_555
C16B C17B 1_555 1_555
C17B C18B 1_555 1_555
C18B H29B 1_555 1_555
C18B C19B 1_555 1_555
C19B H30B 1_555 1_555
C19B C20B 1_555 1_555
C20B H31B 1_555 1_555
C20B C21B 1_555 1_555
C21B C22B 1_555 1_555
C22B H32B 1_555 1_555
C22B H33B 1_555 1_555
C23B H34B 1_555 1_555
C23B C24B 1_555 1_555
C23B C27B 1_555 1_555
C24B H35B 1_555 1_555
C24B H36B 1_555 1_555
C24B C25B 1_555 1_555
C25B H37B 1_555 1_555
C25B H38B 1_555 1_555
C25B C26B 1_555 1_555
C26B H39B 1_555 1_555
C26B H40B 1_555 1_555
C26B C27B 1_555 1_555
C27B H41B 1_555 1_555
C28B H42B 1_555 1_555
C28B H43B 1_555 1_555
C28B C29B 1_555 1_555
C29B C30B 1_555 1_555
C30B H44B 1_555 1_555
C30B C31B 1_555 1_555
C31B H45B 1_555 1_555
C31B C32B 1_555 1_555
C32B H46B 1_555 1_555
C32B C33B 1_555 1_555
C33B C34B 1_555 1_555
C34B H47B 1_555 1_555
C34B H48B 1_555 1_555
C35B H49B 1_555 1_555
C35B C36B 1_555 1_555
C36B H50B 1_555 1_555
C36B H51B 1_555 1_555
Cu1B O1B 1_555 1_555
O1B H52B 1_555 1_555
O1B C37B 1_555 1_555
C37B H53B 1_555 1_555
C37B H54B 1_555 1_555
C37B H55B 1_555 1_555

#END
