
#######################################################################
#
#                 Cambridge Crystallographic Data Centre
#                                CCDC 
#
#######################################################################
#
# If this CIF has been generated from an entry in the Cambridge 
# Structural Database, then it will include bibliographic, chemical, 
# crystal, experimental, refinement or atomic coordinate data resulting 
# from the CCDC's data processing and validation procedures.
#
#######################################################################

data_KIPYEP
_chemical_formula_moiety         
'C60 H96 Cu4 N42 O24 Pt6 14+,14(N1 O3 1-),22(H2 O1)'
_chemical_name_systematic        
"hexakis(\m~3~-2,2'-bipyrazine)-hexakis(ethane-1,2-diamine)-hexanitrato-hexa-aqua-tetra-copper(ii)-hexa-platinum(ii) tetradecanitrate docosahydrate"
_symmetry_cell_setting           triclinic
_symmetry_space_group_name_H-M   'P -1'
_symmetry_Int_Tables_number      2
_space_group_name_Hall           '-P 1'
loop_
_symmetry_equiv_pos_site_id
_symmetry_equiv_pos_as_xyz
1 x,y,z
2 -x,-y,-z
_cell_length_a                   14.7659(5)
_cell_length_b                   15.7964(6)
_cell_length_c                   17.9343(6)
_cell_angle_alpha                98.906(3)
_cell_angle_beta                 108.024(3)
_cell_angle_gamma                115.872(3)
_cell_volume                     3367.57
_exptl_crystal_colour            green
_exptl_crystal_description       prisms
_cell_formula_units_Z            1
loop_
_atom_site_label
_atom_site_type_symbol
_atom_site_fract_x
_atom_site_fract_y
_atom_site_fract_z
Pt1 Pt 0.89840(3) 0.19271(3) 0.37050(3)
Pt2 Pt 1.42521(3) 0.55806(3) 0.30940(3)
Pt3 Pt 1.24416(3) -0.00709(3) 0.25553(3)
Cu1 Cu 0.91007(11) 0.49173(10) 0.13550(9)
Cu2 Cu 0.66606(11) -0.21772(9) 0.02850(8)
N1 N 0.9766(8) 0.3062(6) 0.4785(5)
H1 H 1.03410 0.36080 0.47700
H2 H 0.92780 0.32420 0.48620
C1 C 1.0206(11) 0.2750(9) 0.5485(7)
H3 H 1.03650 0.31980 0.60200
H4 H 1.09020 0.27810 0.55190
C2 C 0.9333(11) 0.1699(8) 0.5317(7)
H5 H 0.96290 0.14200 0.57200
H6 H 0.86780 0.16840 0.53690
N2 N 0.9014(7) 0.1105(6) 0.4452(5)
H7 H 0.83240 0.05390 0.42540
H8 H 0.95170 0.09090 0.44530
N3 N 1.5755(7) 0.5746(7) 0.3692(6)
H9 H 1.56870 0.52690 0.39430
H10 H 1.60450 0.56690 0.33180
C3 C 1.6488(10) 0.6746(9) 0.4319(8)
H11 H 1.67150 0.72540 0.40480
H12 H 1.71650 0.67930 0.47100
C4 C 1.5874(10) 0.6921(10) 0.4773(8)
H13 H 1.63060 0.76260 0.51460
H14 H 1.57580 0.64860 0.51190
N4 N 1.4778(8) 0.6695(7) 0.4160(6)
H15 H 1.48470 0.72590 0.40390
H16 H 1.42670 0.64940 0.43820
N5 N 1.4072(8) 0.0525(7) 0.3286(6)
H17 H 1.43390 0.01780 0.30550
H18 H 1.44650 0.11800 0.33180
C5 C 1.4228(9) 0.0479(10) 0.4113(8)
H19 H 1.42160 0.10350 0.44430
H20 H 1.49540 0.05390 0.44040
C6 C 1.3284(10) -0.0524(9) 0.4022(8)
H21 H 1.33530 -0.10820 0.37650
H22 H 1.32900 -0.05470 0.45720
N6 N 1.2254(7) -0.0591(6) 0.3478(5)
H23 H 1.20700 -0.02280 0.37890
H24 H 1.16810 -0.12470 0.32550
N7 N 0.8983(7) 0.4059(7) 0.2080(5)
C7 C 0.9884(9) 0.3996(8) 0.2435(7)
C8 C 0.9897(9) 0.3377(8) 0.2886(7)
H25 H 1.05400 0.33310 0.31090
N8 N 0.8989(7) 0.2825(6) 0.3016(6)
C9 C 0.8110(9) 0.2917(8) 0.2694(7)
H26 H 0.74760 0.25520 0.27920
C10 C 0.8088(9) 0.3521(8) 0.2224(7)
H27 H 0.74410 0.35620 0.19980
N9 N 1.0695(8) 0.5255(7) 0.1871(6)
C11 C 1.0855(9) 0.4670(7) 0.2311(6)
C12 C 1.1871(8) 0.4757(7) 0.2643(6)
H28 H 1.19620 0.43180 0.29250
N10 N 1.2757(7) 0.5471(6) 0.2570(6)
C13 C 1.2597(9) 0.6052(8) 0.2186(7)
H29 H 1.32150 0.65710 0.21540
C14 C 1.1556(9) 0.5957(8) 0.1812(7)
H30 H 1.14710 0.63900 0.15210
N11 N 1.3659(7) 0.3263(6) 0.0696(5)
C15 C 1.3443(9) 0.2952(7) 0.1310(7)
C16 C 1.3555(9) 0.3591(8) 0.1985(7)
H31 H 1.33960 0.33580 0.24120
N12 N 1.3895(7) 0.4563(6) 0.2048(5)
C17 C 1.4092(8) 0.4850(7) 0.1428(7)
H32 H 1.43270 0.55240 0.14600
C18 C 1.3969(9) 0.4211(8) 0.0748(7)
H33 H 1.41040 0.44380 0.03120
N13 N 1.3057(7) 0.1398(6) 0.0504(5)
C19 C 1.3130(8) 0.1904(7) 0.1194(7)
C20 C 1.2955(8) 0.1482(8) 0.1795(7)
H34 H 1.30020 0.18580 0.22880
N14 N 1.2718(7) 0.0530(6) 0.1671(5)
C21 C 1.2657(9) 0.0023(8) 0.0976(7)
H35 H 1.25000 -0.06450 0.08860
C22 C 1.2820(9) 0.0463(8) 0.0384(7)
H36 H 1.27610 0.00900 -0.01160
N15 N 0.8526(8) -0.1664(6) 0.0941(6)
C23 C 0.9087(9) -0.0811(8) 0.1589(6)
C24 C 1.0207(9) -0.0339(8) 0.2025(7)
H37 H 1.05840 0.02930 0.24490
N16 N 1.0793(7) -0.0737(6) 0.1875(5)
C25 C 1.0251(9) -0.1607(8) 0.1229(7)
H38 H 1.06410 -0.19120 0.11020
C26 C 0.9108(9) -0.2046(8) 0.0754(7)
H39 H 0.87340 -0.26350 0.02830
N17 N 0.7322(8) -0.0928(7) 0.1305(5)
C27 C 0.8399(9) -0.0426(7) 0.1782(6)
C28 C 0.8871(9) 0.0412(8) 0.2472(7)
H40 H 0.96490 0.07620 0.28100
N18 N 0.8253(7) 0.0730(7) 0.2667(5)
C29 C 0.7142(9) 0.0194(8) 0.2189(8)
H41 H 0.66740 0.03790 0.23390
C30 C 0.6688(9) -0.0611(8) 0.1493(7)
H42 H 0.59170 -0.09470 0.11400
N19 N 0.7079(13) 0.4939(12) 0.0772(9)
O1 O 0.7522(10) 0.4402(9) 0.0986(8)
O2 O 0.6063(11) 0.4485(11) 0.0438(9)
O3 O 0.7654(11) 0.5793(9) 0.0888(9)
N20 N 0.8891(10) 0.5570(9) -0.0062(8)
O4 O 0.9509(16) 0.5745(11) 0.0680(8)
O5 O 0.7946(9) 0.4803(8) -0.0408(6)
O6 O 0.9215(9) 0.6169(8) -0.0425(6)
N21 N 1.0089(9) 0.7013(7) 0.2603(7)
O7 O 0.9358(7) 0.6118(6) 0.2474(5)
O8 O 0.9851(7) 0.7675(6) 0.2719(6)
O9 O 1.1003(10) 0.7239(8) 0.2638(10)
O10 O 0.8651(11) 0.340(1) 0.0351(8)
H43 H 0.82370 0.32480 -0.01570
H44 H 0.92760 0.34940 0.03830
O11 O 0.4929(6) -0.2415(6) -0.0135(5)
H45 H 0.46720 -0.22890 0.02040
H46 H 0.44130 -0.29610 -0.05240
O12 O 0.6241(6) -0.3076(5) 0.0907(5)
H47 H 0.59010 -0.36820 0.05950
H48 H 0.58810 -0.30310 0.11840
Pt1A Pt 1.10160(3) -0.19271(3) -0.37050(3)
Pt2A Pt 0.57479(3) -0.55806(3) -0.30940(3)
Pt3A Pt 0.75584(3) 0.00709(3) -0.25553(3)
Cu1A Cu 1.08993(11) -0.49173(10) -0.13550(9)
Cu2A Cu 1.33394(11) 0.21772(9) -0.02850(8)
N1A N 1.0234(8) -0.3062(6) -0.4785(5)
H1A H 0.96590 -0.36080 -0.47700
H2A H 1.07220 -0.32420 -0.48620
C1A C 0.9794(11) -0.2750(9) -0.5485(7)
H3A H 0.96350 -0.31980 -0.60200
H4A H 0.90980 -0.27810 -0.55190
C2A C 1.0667(11) -0.1699(8) -0.5317(7)
H5A H 1.03710 -0.14200 -0.57200
H6A H 1.13220 -0.16840 -0.53690
N2A N 1.0986(7) -0.1105(6) -0.4452(5)
H7A H 1.16760 -0.05390 -0.42540
H8A H 1.04830 -0.09090 -0.44530
N3A N 0.4245(7) -0.5746(7) -0.3692(6)
H9A H 0.43130 -0.52690 -0.39430
H10A H 0.39550 -0.56690 -0.33180
C3A C 0.3512(10) -0.6746(9) -0.4319(8)
H11A H 0.32850 -0.72540 -0.40480
H12A H 0.28350 -0.67930 -0.47100
C4A C 0.4126(10) -0.6921(10) -0.4773(8)
H13A H 0.36940 -0.76260 -0.51460
H14A H 0.42420 -0.64860 -0.51190
N4A N 0.5222(8) -0.6695(7) -0.4160(6)
H15A H 0.51530 -0.72590 -0.40390
H16A H 0.57330 -0.64940 -0.43820
N5A N 0.5928(8) -0.0525(7) -0.3286(6)
H17A H 0.56610 -0.01780 -0.30550
H18A H 0.55350 -0.11800 -0.33180
C5A C 0.5772(9) -0.0479(10) -0.4113(8)
H19A H 0.57840 -0.10350 -0.44430
H20A H 0.50460 -0.05390 -0.44040
C6A C 0.6716(10) 0.0524(9) -0.4022(8)
H21A H 0.66470 0.10820 -0.37650
H22A H 0.67100 0.05470 -0.45720
N6A N 0.7746(7) 0.0591(6) -0.3478(5)
H23A H 0.79300 0.02280 -0.37890
H24A H 0.83190 0.12470 -0.32550
N7A N 1.1017(7) -0.4059(7) -0.2080(5)
C7A C 1.0116(9) -0.3996(8) -0.2435(7)
C8A C 1.0103(9) -0.3377(8) -0.2886(7)
H25A H 0.94600 -0.33310 -0.31090
N8A N 1.1011(7) -0.2825(6) -0.3016(6)
C9A C 1.1890(9) -0.2917(8) -0.2694(7)
H26A H 1.25240 -0.25520 -0.27920
C10A C 1.1912(9) -0.3521(8) -0.2224(7)
H27A H 1.25590 -0.35620 -0.19980
N9A N 0.9305(8) -0.5255(7) -0.1871(6)
C11A C 0.9145(9) -0.4670(7) -0.2311(6)
C12A C 0.8129(8) -0.4757(7) -0.2643(6)
H28A H 0.80380 -0.43180 -0.29250
N10A N 0.7243(7) -0.5471(6) -0.2570(6)
C13A C 0.7403(9) -0.6052(8) -0.2186(7)
H29A H 0.67850 -0.65710 -0.21540
C14A C 0.8444(9) -0.5957(8) -0.1812(7)
H30A H 0.85290 -0.63900 -0.15210
N11A N 0.6341(7) -0.3263(6) -0.0696(5)
C15A C 0.6557(9) -0.2952(7) -0.1310(7)
C16A C 0.6445(9) -0.3591(8) -0.1985(7)
H31A H 0.66040 -0.33580 -0.24120
N12A N 0.6105(7) -0.4563(6) -0.2048(5)
C17A C 0.5908(8) -0.4850(7) -0.1428(7)
H32A H 0.56730 -0.55240 -0.14600
C18A C 0.6031(9) -0.4211(8) -0.0748(7)
H33A H 0.58960 -0.44380 -0.03120
N13A N 0.6943(7) -0.1398(6) -0.0504(5)
C19A C 0.6870(8) -0.1904(7) -0.1194(7)
C20A C 0.7045(8) -0.1482(8) -0.1795(7)
H34A H 0.69980 -0.18580 -0.22880
N14A N 0.7282(7) -0.0530(6) -0.1671(5)
C21A C 0.7343(9) -0.0023(8) -0.0976(7)
H35A H 0.75000 0.06450 -0.08860
C22A C 0.7180(9) -0.0463(8) -0.0384(7)
H36A H 0.72390 -0.00900 0.01160
N15A N 1.1474(8) 0.1664(6) -0.0941(6)
C23A C 1.0913(9) 0.0811(8) -0.1589(6)
C24A C 0.9793(9) 0.0339(8) -0.2025(7)
H37A H 0.94160 -0.02930 -0.24490
N16A N 0.9207(7) 0.0737(6) -0.1875(5)
C25A C 0.9749(9) 0.1607(8) -0.1229(7)
H38A H 0.93590 0.19120 -0.11020
C26A C 1.0892(9) 0.2046(8) -0.0754(7)
H39A H 1.12660 0.26350 -0.02830
N17A N 1.2678(8) 0.0928(7) -0.1305(5)
C27A C 1.1601(9) 0.0426(7) -0.1782(6)
C28A C 1.1129(9) -0.0412(8) -0.2472(7)
H40A H 1.03510 -0.07620 -0.28100
N18A N 1.1747(7) -0.0730(7) -0.2667(5)
C29A C 1.2858(9) -0.0194(8) -0.2189(8)
H41A H 1.33260 -0.03790 -0.23390
C30A C 1.3312(9) 0.0611(8) -0.1493(7)
H42A H 1.40830 0.09470 -0.11400
N19A N 1.2921(13) -0.4939(12) -0.0772(9)
O1A O 1.2478(10) -0.4402(9) -0.0986(8)
O2A O 1.3937(11) -0.4485(11) -0.0438(9)
O3A O 1.2346(11) -0.5793(9) -0.0888(9)
N20A N 1.1109(10) -0.5570(9) 0.0062(8)
O4A O 1.0491(16) -0.5745(11) -0.0680(8)
O5A O 1.2054(9) -0.4803(8) 0.0408(6)
O6A O 1.0785(9) -0.6169(8) 0.0425(6)
N21A N 0.9911(9) -0.7013(7) -0.2603(7)
O7A O 1.0642(7) -0.6118(6) -0.2474(5)
O8A O 1.0149(7) -0.7675(6) -0.2719(6)
O9A O 0.8997(10) -0.7239(8) -0.2638(10)
O10A O 1.1349(11) -0.340(1) -0.0351(8)
H43A H 1.17630 -0.32480 0.01570
H44A H 1.07240 -0.34940 -0.03830
O11A O 1.5071(6) 0.2415(6) 0.0135(5)
H45A H 1.53280 0.22890 -0.02040
H46A H 1.55870 0.29610 0.05240
O12A O 1.3759(6) 0.3076(5) -0.0907(5)
H47A H 1.40990 0.36820 -0.05950
H48A H 1.41190 0.30310 -0.11840
loop_
_geom_bond_atom_site_label_1
_geom_bond_atom_site_label_2
_geom_bond_site_symmetry_1
_geom_bond_site_symmetry_2
Pt1 N1 1_555 1_555
Pt1 N2 1_555 1_555
Pt1 N8 1_555 1_555
Pt1 N18 1_555 1_555
Pt2 N3 1_555 1_555
Pt2 N4 1_555 1_555
Pt2 N10 1_555 1_555
Pt2 N12 1_555 1_555
Pt3 N5 1_555 1_555
Pt3 N6 1_555 1_555
Pt3 N14 1_555 1_555
Pt3 N16 1_555 1_555
Cu1 N7 1_555 1_555
Cu1 N9 1_555 1_555
Cu1 O1 1_555 1_555
Cu1 O4 1_555 1_555
Cu1 O7 1_555 1_555
Cu1 O10 1_555 1_555
Cu2 N15 1_555 1_555
Cu2 N17 1_555 1_555
Cu2 O11 1_555 1_555
Cu2 O12 1_555 1_555
Cu2 N11A 1_555 1_555
Cu2 N13A 1_555 1_555
N1 H1 1_555 1_555
N1 H2 1_555 1_555
N1 C1 1_555 1_555
C1 H3 1_555 1_555
C1 H4 1_555 1_555
C1 C2 1_555 1_555
C2 H5 1_555 1_555
C2 H6 1_555 1_555
C2 N2 1_555 1_555
N2 H7 1_555 1_555
N2 H8 1_555 1_555
N3 H9 1_555 1_555
N3 H10 1_555 1_555
N3 C3 1_555 1_555
C3 H11 1_555 1_555
C3 H12 1_555 1_555
C3 C4 1_555 1_555
C4 H13 1_555 1_555
C4 H14 1_555 1_555
C4 N4 1_555 1_555
N4 H15 1_555 1_555
N4 H16 1_555 1_555
N5 H17 1_555 1_555
N5 H18 1_555 1_555
N5 C5 1_555 1_555
C5 H19 1_555 1_555
C5 H20 1_555 1_555
C5 C6 1_555 1_555
C6 H21 1_555 1_555
C6 H22 1_555 1_555
C6 N6 1_555 1_555
N6 H23 1_555 1_555
N6 H24 1_555 1_555
N7 C7 1_555 1_555
N7 C10 1_555 1_555
C7 C8 1_555 1_555
C7 C11 1_555 1_555
C8 H25 1_555 1_555
C8 N8 1_555 1_555
N8 C9 1_555 1_555
C9 H26 1_555 1_555
C9 C10 1_555 1_555
C10 H27 1_555 1_555
N9 C11 1_555 1_555
N9 C14 1_555 1_555
C11 C12 1_555 1_555
C12 H28 1_555 1_555
C12 N10 1_555 1_555
N10 C13 1_555 1_555
C13 H29 1_555 1_555
C13 C14 1_555 1_555
C14 H30 1_555 1_555
N11 C15 1_555 1_555
N11 C18 1_555 1_555
N11 Cu2A 1_555 1_555
C15 C16 1_555 1_555
C15 C19 1_555 1_555
C16 H31 1_555 1_555
C16 N12 1_555 1_555
N12 C17 1_555 1_555
C17 H32 1_555 1_555
C17 C18 1_555 1_555
C18 H33 1_555 1_555
N13 C19 1_555 1_555
N13 C22 1_555 1_555
N13 Cu2A 1_555 1_555
C19 C20 1_555 1_555
C20 H34 1_555 1_555
C20 N14 1_555 1_555
N14 C21 1_555 1_555
C21 H35 1_555 1_555
C21 C22 1_555 1_555
C22 H36 1_555 1_555
N15 C23 1_555 1_555
N15 C26 1_555 1_555
C23 C24 1_555 1_555
C23 C27 1_555 1_555
C24 H37 1_555 1_555
C24 N16 1_555 1_555
N16 C25 1_555 1_555
C25 H38 1_555 1_555
C25 C26 1_555 1_555
C26 H39 1_555 1_555
N17 C27 1_555 1_555
N17 C30 1_555 1_555
C27 C28 1_555 1_555
C28 H40 1_555 1_555
C28 N18 1_555 1_555
N18 C29 1_555 1_555
C29 H41 1_555 1_555
C29 C30 1_555 1_555
C30 H42 1_555 1_555
N19 O1 1_555 1_555
N19 O2 1_555 1_555
N19 O3 1_555 1_555
N20 O4 1_555 1_555
N20 O5 1_555 1_555
N20 O6 1_555 1_555
N21 O7 1_555 1_555
N21 O8 1_555 1_555
N21 O9 1_555 1_555
O10 H43 1_555 1_555
O10 H44 1_555 1_555
O11 H45 1_555 1_555
O11 H46 1_555 1_555
O12 H47 1_555 1_555
O12 H48 1_555 1_555
Pt1A N1A 1_555 1_555
Pt1A N2A 1_555 1_555
Pt1A N8A 1_555 1_555
Pt1A N18A 1_555 1_555
Pt2A N3A 1_555 1_555
Pt2A N4A 1_555 1_555
Pt2A N10A 1_555 1_555
Pt2A N12A 1_555 1_555
Pt3A N5A 1_555 1_555
Pt3A N6A 1_555 1_555
Pt3A N14A 1_555 1_555
Pt3A N16A 1_555 1_555
Cu1A N7A 1_555 1_555
Cu1A N9A 1_555 1_555
Cu1A O1A 1_555 1_555
Cu1A O4A 1_555 1_555
Cu1A O7A 1_555 1_555
Cu1A O10A 1_555 1_555
Cu2A N15A 1_555 1_555
Cu2A N17A 1_555 1_555
Cu2A O11A 1_555 1_555
Cu2A O12A 1_555 1_555
N1A H1A 1_555 1_555
N1A H2A 1_555 1_555
N1A C1A 1_555 1_555
C1A H3A 1_555 1_555
C1A H4A 1_555 1_555
C1A C2A 1_555 1_555
C2A H5A 1_555 1_555
C2A H6A 1_555 1_555
C2A N2A 1_555 1_555
N2A H7A 1_555 1_555
N2A H8A 1_555 1_555
N3A H9A 1_555 1_555
N3A H10A 1_555 1_555
N3A C3A 1_555 1_555
C3A H11A 1_555 1_555
C3A H12A 1_555 1_555
C3A C4A 1_555 1_555
C4A H13A 1_555 1_555
C4A H14A 1_555 1_555
C4A N4A 1_555 1_555
N4A H15A 1_555 1_555
N4A H16A 1_555 1_555
N5A H17A 1_555 1_555
N5A H18A 1_555 1_555
N5A C5A 1_555 1_555
C5A H19A 1_555 1_555
C5A H20A 1_555 1_555
C5A C6A 1_555 1_555
C6A H21A 1_555 1_555
C6A H22A 1_555 1_555
C6A N6A 1_555 1_555
N6A H23A 1_555 1_555
N6A H24A 1_555 1_555
N7A C7A 1_555 1_555
N7A C10A 1_555 1_555
C7A C8A 1_555 1_555
C7A C11A 1_555 1_555
C8A H25A 1_555 1_555
C8A N8A 1_555 1_555
N8A C9A 1_555 1_555
C9A H26A 1_555 1_555
C9A C10A 1_555 1_555
C10A H27A 1_555 1_555
N9A C11A 1_555 1_555
N9A C14A 1_555 1_555
C11A C12A 1_555 1_555
C12A H28A 1_555 1_555
C12A N10A 1_555 1_555
N10A C13A 1_555 1_555
C13A H29A 1_555 1_555
C13A C14A 1_555 1_555
C14A H30A 1_555 1_555
N11A C15A 1_555 1_555
N11A C18A 1_555 1_555
C15A C16A 1_555 1_555
C15A C19A 1_555 1_555
C16A H31A 1_555 1_555
C16A N12A 1_555 1_555
N12A C17A 1_555 1_555
C17A H32A 1_555 1_555
C17A C18A 1_555 1_555
C18A H33A 1_555 1_555
N13A C19A 1_555 1_555
N13A C22A 1_555 1_555
C19A C20A 1_555 1_555
C20A H34A 1_555 1_555
C20A N14A 1_555 1_555
N14A C21A 1_555 1_555
C21A H35A 1_555 1_555
C21A C22A 1_555 1_555
C22A H36A 1_555 1_555
N15A C23A 1_555 1_555
N15A C26A 1_555 1_555
C23A C24A 1_555 1_555
C23A C27A 1_555 1_555
C24A H37A 1_555 1_555
C24A N16A 1_555 1_555
N16A C25A 1_555 1_555
C25A H38A 1_555 1_555
C25A C26A 1_555 1_555
C26A H39A 1_555 1_555
N17A C27A 1_555 1_555
N17A C30A 1_555 1_555
C27A C28A 1_555 1_555
C28A H40A 1_555 1_555
C28A N18A 1_555 1_555
N18A C29A 1_555 1_555
C29A H41A 1_555 1_555
C29A C30A 1_555 1_555
C30A H42A 1_555 1_555
N19A O1A 1_555 1_555
N19A O2A 1_555 1_555
N19A O3A 1_555 1_555
N20A O4A 1_555 1_555
N20A O5A 1_555 1_555
N20A O6A 1_555 1_555
N21A O7A 1_555 1_555
N21A O8A 1_555 1_555
N21A O9A 1_555 1_555
O10A H43A 1_555 1_555
O10A H44A 1_555 1_555
O11A H45A 1_555 1_555
O11A H46A 1_555 1_555
O12A H47A 1_555 1_555
O12A H48A 1_555 1_555

#END
