
#######################################################################
#
#                 Cambridge Crystallographic Data Centre
#                                CCDC 
#
#######################################################################
#
# If this CIF has been generated from an entry in the Cambridge 
# Structural Database, then it will include bibliographic, chemical, 
# crystal, experimental, refinement or atomic coordinate data resulting 
# from the CCDC's data processing and validation procedures.
#
#######################################################################

data_OCOVIN
_chemical_formula_moiety         
'C64 H56 N28 Ni4 O4 4+,4(N1 O3 1-),2(C2 H3 N1),8(H2 O1)'
_chemical_name_systematic        
'tetrakis(\m~2~-N-(Amino(pyridin-2-yl)methylene)-5-methyl-1-(pyridin-2-yl)-1H-pyrazole-3-carbohydrazonato)-tetra-nickel tetranitrate acetonitrile solvate octahydrate'
_symmetry_cell_setting           tetragonal
_symmetry_space_group_name_H-M   'I 41/a'
_symmetry_Int_Tables_number      88
_space_group_name_Hall           '-I 4ad'
loop_
_symmetry_equiv_pos_site_id
_symmetry_equiv_pos_as_xyz
1 x,y,z
2 1/2-x,-y,1/2+z
3 3/4-y,1/4+x,1/4+z
4 3/4+y,3/4-x,3/4+z
5 1/2+x,1/2+y,1/2+z
6 -x,1/2-y,z
7 1/4-y,3/4+x,3/4+z
8 1/4+y,1/4-x,1/4+z
9 -x,-y,-z
10 1/2+x,y,1/2-z
11 1/4+y,3/4-x,3/4-z
12 1/4-y,1/4+x,1/4-z
13 1/2-x,1/2-y,1/2-z
14 x,1/2+y,-z
15 3/4+y,1/4-x,1/4-z
16 3/4-y,3/4+x,3/4-z
_cell_length_a                   14.105(9)
_cell_length_b                   14.105(9)
_cell_length_c                   38.379(4)
_cell_angle_alpha                90
_cell_angle_beta                 90
_cell_angle_gamma                90
_cell_volume                     7635.54
_exptl_crystal_colour            green
_exptl_crystal_description       cubic
_cell_formula_units_Z            4
loop_
_atom_site_label
_atom_site_type_symbol
_atom_site_fract_x
_atom_site_fract_y
_atom_site_fract_z
Ni1 Ni 0.80406(3) 0.30358(3) 0.120487(13)
O1 O 0.87468(18) 0.19267(19) 0.14493(7)
N1 N 0.7306(2) 0.4342(2) 0.11877(9)
N2 N 0.7918(2) 0.3363(2) 0.16986(9)
N3 N 0.8349(2) 0.2789(2) 0.19436(9)
N4 N 0.8222(2) 0.2837(2) 0.07102(9)
N5 N 0.7586(2) 0.2376(2) 0.05087(9)
N6 N 0.6854(2) 0.2157(2) 0.1040(1)
N7 N 0.7428(3) 0.4423(3) 0.21264(11)
H1 H 0.76720 0.40890 0.22910
H2 H 0.71390 0.49440 0.21740
C1 C 0.7004(3) 0.4823(3) 0.09056(12)
H3 H 0.71390 0.45790 0.06860
C2 C 0.6501(3) 0.5666(3) 0.09283(15)
H4 H 0.62990 0.59800 0.07290
C3 C 0.6311(3) 0.6018(3) 0.12469(15)
H5 H 0.59750 0.65820 0.12680
C4 C 0.6616(3) 0.5542(3) 0.15448(14)
H6 H 0.64890 0.57830 0.17660
C5 C 0.7113(3) 0.4698(3) 0.15035(12)
C6 C 0.7498(3) 0.4133(3) 0.17962(11)
C7 C 0.8762(3) 0.2077(3) 0.17833(10)
C8 C 0.8872(3) 0.3210(3) 0.05141(10)
C9 C 0.8676(3) 0.2978(4) 0.01664(12)
H7 H 0.90350 0.31500 -0.00270
C10 C 0.7864(3) 0.2452(3) 0.01630(12)
C11 C 0.7352(4) 0.2013(4) -0.01342(14)
H8 H 0.68010 0.16870 -0.00490
H9 H 0.71620 0.24970 -0.02950
H10 H 0.77620 0.15700 -0.02500
C12 C 0.6819(3) 0.1993(3) 0.06941(12)
C13 C 0.6086(3) 0.1477(3) 0.05407(14)
H11 H 0.60670 0.13780 0.03010
C14 C 0.5395(4) 0.1122(4) 0.07541(16)
H12 H 0.48940 0.07820 0.06580
C15 C 0.5426(4) 0.1256(4) 0.11030(15)
H13 H 0.49630 0.10020 0.12480
C16 C 0.6181(3) 0.1791(3) 0.12407(14)
H14 H 0.62090 0.18900 0.14800
Ni1K Ni 0.94642(3) 0.05406(3) 0.129513(13)
Ni1E Ni 1.19594(3) 0.19642(3) 0.120487(13)
Ni1N Ni 1.05358(3) 0.44594(3) 0.129513(13)
O1K O 1.05733(18) 0.12468(19) 0.10507(7)
O1E O 1.12532(18) 0.30733(19) 0.14493(7)
O1N O 0.94267(18) 0.37532(19) 0.10507(7)
N1N N 1.1842(2) 0.5194(2) 0.13123(9)
N1E N 1.2694(2) 0.0658(2) 0.11877(9)
N1K N 0.8158(2) -0.0194(2) 0.13123(9)
N2N N 1.0863(2) 0.4582(2) 0.08014(9)
N2E N 1.2082(2) 0.1637(2) 0.16986(9)
N2K N 0.9137(2) 0.0418(2) 0.08014(9)
N3N N 1.0289(2) 0.4151(2) 0.05564(9)
N3E N 1.1651(2) 0.2211(2) 0.19436(9)
N3K N 0.9711(2) 0.0849(2) 0.05564(9)
N4N N 1.0337(2) 0.4278(2) 0.17898(9)
N4E N 1.1778(2) 0.2163(2) 0.07102(9)
N4K N 0.9663(2) 0.0722(2) 0.17898(9)
N5N N 0.9876(2) 0.4914(2) 0.19913(9)
N5E N 1.2414(2) 0.2624(2) 0.05087(9)
N5K N 1.0124(2) 0.0086(2) 0.19913(9)
N6K N 1.0343(2) -0.0646(2) 0.1460(1)
N6E N 1.3146(2) 0.2843(2) 0.1040(1)
N6N N 0.9657(2) 0.5646(2) 0.1460(1)
N7N N 1.1923(3) 0.5072(3) 0.03736(11)
N7E N 1.2572(3) 0.0577(3) 0.21264(11)
N7K N 0.8077(3) -0.0072(3) 0.03736(11)
H1N H 1.15890 0.48280 0.02090
H1E H 1.23280 0.09110 0.22910
H1K H 0.84110 0.01720 0.02090
H2N H 1.24440 0.53610 0.03260
H2E H 1.28610 0.00560 0.21740
H2K H 0.75560 -0.03610 0.03260
C1N C 1.2323(3) 0.5496(3) 0.15944(12)
C1E C 1.2996(3) 0.0177(3) 0.09056(12)
C1K C 0.7677(3) -0.0496(3) 0.15944(12)
H3N H 1.20790 0.53610 0.18140
H3E H 1.28610 0.04210 0.06860
H3K H 0.79210 -0.03610 0.18140
C2N C 1.3166(3) 0.5999(3) 0.15717(15)
C2E C 1.3499(3) -0.0666(3) 0.09283(15)
C2K C 0.6834(3) -0.0999(3) 0.15717(15)
H4N H 1.34800 0.62010 0.17710
H4E H 1.37010 -0.09800 0.07290
H4K H 0.65200 -0.12010 0.17710
C3N C 1.3518(3) 0.6189(3) 0.12531(15)
C3E C 1.3689(3) -0.1018(3) 0.12469(15)
C3K C 0.6482(3) -0.1189(3) 0.12531(15)
H5N H 1.40820 0.65250 0.12320
H5E H 1.40250 -0.15820 0.12680
H5K H 0.59180 -0.15250 0.12320
C4N C 1.3042(3) 0.5884(3) 0.09552(14)
C4E C 1.3384(3) -0.0542(3) 0.15448(14)
C4K C 0.6958(3) -0.0884(3) 0.09552(14)
H6N H 1.32830 0.60110 0.07340
H6E H 1.35110 -0.07830 0.17660
H6K H 0.67170 -0.10110 0.07340
C5N C 1.2198(3) 0.5387(3) 0.09965(12)
C5E C 1.2887(3) 0.0302(3) 0.15035(12)
C5K C 0.7802(3) -0.0387(3) 0.09965(12)
C6N C 1.1633(3) 0.5002(3) 0.07038(11)
C6E C 1.2502(3) 0.0867(3) 0.17962(11)
C6K C 0.8367(3) -0.0002(3) 0.07038(11)
C7N C 0.9577(3) 0.3738(3) 0.07167(10)
C7E C 1.1238(3) 0.2923(3) 0.17833(10)
C7K C 1.0423(3) 0.1262(3) 0.07167(10)
C8N C 1.0710(3) 0.3628(3) 0.19859(10)
C8E C 1.1128(3) 0.1790(3) 0.05141(10)
C8K C 0.9290(3) 0.1372(3) 0.19859(10)
C9N C 1.0478(3) 0.3824(4) 0.23336(12)
C9E C 1.1324(3) 0.2022(4) 0.01664(12)
C9K C 0.9522(3) 0.1176(4) 0.23336(12)
H7K H 0.93500 0.15350 0.25270
H7E H 1.09650 0.18500 -0.00270
H7N H 1.06500 0.34650 0.25270
C10N C 0.9952(3) 0.4636(3) 0.23370(12)
C10E C 1.2136(3) 0.2548(3) 0.01630(12)
C10K C 1.0048(3) 0.0364(3) 0.23370(12)
C11K C 1.0487(4) -0.0148(4) 0.26342(14)
C11E C 1.2648(4) 0.2987(4) -0.01342(14)
C11N C 0.9513(4) 0.5148(4) 0.26342(14)
H8K H 1.08130 -0.06990 0.25490
H8E H 1.31990 0.33130 -0.00490
H8N H 0.91870 0.56990 0.25490
H9K H 1.00030 -0.03380 0.27950
H9E H 1.28380 0.25030 -0.02950
H9N H 0.99970 0.53380 0.27950
H10K H 1.09300 0.02620 0.27500
H10E H 1.22380 0.34300 -0.02500
H10N H 0.90700 0.47380 0.27500
C12K C 1.0507(3) -0.0681(3) 0.18059(12)
C12E C 1.3181(3) 0.3007(3) 0.06941(12)
C12N C 0.9493(3) 0.5681(3) 0.18059(12)
C13K C 1.1023(3) -0.1414(3) 0.19593(14)
C13E C 1.3914(3) 0.3523(3) 0.05407(14)
C13N C 0.8977(3) 0.6414(3) 0.19593(14)
H11K H 1.11220 -0.14330 0.21990
H11E H 1.39330 0.36220 0.03010
H11N H 0.88780 0.64330 0.21990
C14K C 1.1378(4) -0.2105(4) 0.17459(16)
C14E C 1.4605(4) 0.3878(4) 0.07541(16)
C14N C 0.8622(4) 0.7105(4) 0.17459(16)
H12K H 1.17180 -0.26060 0.18420
H12E H 1.51060 0.42180 0.06580
H12N H 0.82820 0.76060 0.18420
C15K C 1.1244(4) -0.2074(4) 0.13970(15)
C15E C 1.4574(4) 0.3744(4) 0.11030(15)
C15N C 0.8756(4) 0.7074(4) 0.13970(15)
H13K H 1.14980 -0.25370 0.12520
H13E H 1.50370 0.39980 0.12480
H13N H 0.85020 0.75370 0.12520
C16K C 1.0709(3) -0.1319(3) 0.12593(14)
C16E C 1.3819(3) 0.3209(3) 0.12407(14)
C16N C 0.9291(3) 0.6319(3) 0.12593(14)
H14K H 1.06100 -0.12910 0.10200
H14E H 1.37910 0.31100 0.14800
H14N H 0.93900 0.62910 0.10200
loop_
_geom_bond_atom_site_label_1
_geom_bond_atom_site_label_2
_geom_bond_site_symmetry_1
_geom_bond_site_symmetry_2
Ni1 O1 1_555 1_555
Ni1 N1 1_555 1_555
Ni1 N2 1_555 1_555
Ni1 N4 1_555 1_555
Ni1 N6 1_555 1_555
Ni1 O1N 1_555 1_555
O1 C7 1_555 1_555
O1 Ni1K 1_555 1_555
N1 C1 1_555 1_555
N1 C5 1_555 1_555
N2 N3 1_555 1_555
N2 C6 1_555 1_555
N3 C7 1_555 1_555
N4 N5 1_555 1_555
N4 C8 1_555 1_555
N5 C10 1_555 1_555
N5 C12 1_555 1_555
N6 C12 1_555 1_555
N6 C16 1_555 1_555
N7 H1 1_555 1_555
N7 H2 1_555 1_555
N7 C6 1_555 1_555
C1 H3 1_555 1_555
C1 C2 1_555 1_555
C2 H4 1_555 1_555
C2 C3 1_555 1_555
C3 H5 1_555 1_555
C3 C4 1_555 1_555
C4 H6 1_555 1_555
C4 C5 1_555 1_555
C5 C6 1_555 1_555
C7 C8K 1_555 1_555
C8 C9 1_555 1_555
C8 C7N 1_555 1_555
C9 H7 1_555 1_555
C9 C10 1_555 1_555
C10 C11 1_555 1_555
C11 H8 1_555 1_555
C11 H9 1_555 1_555
C11 H10 1_555 1_555
C12 C13 1_555 1_555
C13 H11 1_555 1_555
C13 C14 1_555 1_555
C14 H12 1_555 1_555
C14 C15 1_555 1_555
C15 H13 1_555 1_555
C15 C16 1_555 1_555
C16 H14 1_555 1_555
Ni1K O1K 1_555 1_555
Ni1K N1K 1_555 1_555
Ni1K N2K 1_555 1_555
Ni1K N4K 1_555 1_555
Ni1K N6K 1_555 1_555
Ni1E O1K 1_555 1_555
Ni1E O1E 1_555 1_555
Ni1E N1E 1_555 1_555
Ni1E N2E 1_555 1_555
Ni1E N4E 1_555 1_555
Ni1E N6E 1_555 1_555
Ni1N O1E 1_555 1_555
Ni1N O1N 1_555 1_555
Ni1N N1N 1_555 1_555
Ni1N N2N 1_555 1_555
Ni1N N4N 1_555 1_555
Ni1N N6N 1_555 1_555
O1K C7K 1_555 1_555
O1E C7E 1_555 1_555
O1N C7N 1_555 1_555
N1N C1N 1_555 1_555
N1N C5N 1_555 1_555
N1E C1E 1_555 1_555
N1E C5E 1_555 1_555
N1K C1K 1_555 1_555
N1K C5K 1_555 1_555
N2N N3N 1_555 1_555
N2N C6N 1_555 1_555
N2E N3E 1_555 1_555
N2E C6E 1_555 1_555
N2K N3K 1_555 1_555
N2K C6K 1_555 1_555
N3N C7N 1_555 1_555
N3E C7E 1_555 1_555
N3K C7K 1_555 1_555
N4N N5N 1_555 1_555
N4N C8N 1_555 1_555
N4E N5E 1_555 1_555
N4E C8E 1_555 1_555
N4K N5K 1_555 1_555
N4K C8K 1_555 1_555
N5N C10N 1_555 1_555
N5N C12N 1_555 1_555
N5E C10E 1_555 1_555
N5E C12E 1_555 1_555
N5K C10K 1_555 1_555
N5K C12K 1_555 1_555
N6K C12K 1_555 1_555
N6K C16K 1_555 1_555
N6E C12E 1_555 1_555
N6E C16E 1_555 1_555
N6N C12N 1_555 1_555
N6N C16N 1_555 1_555
N7N H1N 1_555 1_555
N7N H2N 1_555 1_555
N7N C6N 1_555 1_555
N7E H1E 1_555 1_555
N7E H2E 1_555 1_555
N7E C6E 1_555 1_555
N7K H1K 1_555 1_555
N7K H2K 1_555 1_555
N7K C6K 1_555 1_555
C1N H3N 1_555 1_555
C1N C2N 1_555 1_555
C1E H3E 1_555 1_555
C1E C2E 1_555 1_555
C1K H3K 1_555 1_555
C1K C2K 1_555 1_555
C2N H4N 1_555 1_555
C2N C3N 1_555 1_555
C2E H4E 1_555 1_555
C2E C3E 1_555 1_555
C2K H4K 1_555 1_555
C2K C3K 1_555 1_555
C3N H5N 1_555 1_555
C3N C4N 1_555 1_555
C3E H5E 1_555 1_555
C3E C4E 1_555 1_555
C3K H5K 1_555 1_555
C3K C4K 1_555 1_555
C4N H6N 1_555 1_555
C4N C5N 1_555 1_555
C4E H6E 1_555 1_555
C4E C5E 1_555 1_555
C4K H6K 1_555 1_555
C4K C5K 1_555 1_555
C5N C6N 1_555 1_555
C5E C6E 1_555 1_555
C5K C6K 1_555 1_555
C7E C8N 1_555 1_555
C7K C8E 1_555 1_555
C8N C9N 1_555 1_555
C8E C9E 1_555 1_555
C8K C9K 1_555 1_555
C9N H7N 1_555 1_555
C9N C10N 1_555 1_555
C9E H7E 1_555 1_555
C9E C10E 1_555 1_555
C9K H7K 1_555 1_555
C9K C10K 1_555 1_555
C10N C11N 1_555 1_555
C10E C11E 1_555 1_555
C10K C11K 1_555 1_555
C11K H8K 1_555 1_555
C11K H9K 1_555 1_555
C11K H10K 1_555 1_555
C11E H8E 1_555 1_555
C11E H9E 1_555 1_555
C11E H10E 1_555 1_555
C11N H8N 1_555 1_555
C11N H9N 1_555 1_555
C11N H10N 1_555 1_555
C12K C13K 1_555 1_555
C12E C13E 1_555 1_555
C12N C13N 1_555 1_555
C13K H11K 1_555 1_555
C13K C14K 1_555 1_555
C13E H11E 1_555 1_555
C13E C14E 1_555 1_555
C13N H11N 1_555 1_555
C13N C14N 1_555 1_555
C14K H12K 1_555 1_555
C14K C15K 1_555 1_555
C14E H12E 1_555 1_555
C14E C15E 1_555 1_555
C14N H12N 1_555 1_555
C14N C15N 1_555 1_555
C15K H13K 1_555 1_555
C15K C16K 1_555 1_555
C15E H13E 1_555 1_555
C15E C16E 1_555 1_555
C15N H13N 1_555 1_555
C15N C16N 1_555 1_555
C16K H14K 1_555 1_555
C16E H14E 1_555 1_555
C16N H14N 1_555 1_555

#END
