
#######################################################################
#
#                 Cambridge Crystallographic Data Centre
#                                CCDC 
#
#######################################################################
#
# If this CIF has been generated from an entry in the Cambridge 
# Structural Database, then it will include bibliographic, chemical, 
# crystal, experimental, refinement or atomic coordinate data resulting 
# from the CCDC's data processing and validation procedures.
#
#######################################################################

data_PECROF
_chemical_formula_moiety         'C72 H56 Ag4 N16 4+,4(C1 F3 O3 S1 1-)'
_chemical_name_systematic        
"bis(\m~2~-cis-N,N'-bis(Pyrid-2-ylmethylene)benzene-1,4-diamine-N,N',N'',N''')-bis(\m~2~-trans-N,N'-bis(pyrid-2-ylmethylene)benzene-1,4-diamine-N,N',N'',N''')-tetra-silver(i) tetrakis(trifluoromethanesulfonate)"
_symmetry_cell_setting           triclinic
_symmetry_space_group_name_H-M   'P -1'
_symmetry_Int_Tables_number      2
_space_group_name_Hall           '-P 1'
loop_
_symmetry_equiv_pos_site_id
_symmetry_equiv_pos_as_xyz
1 x,y,z
2 -x,-y,-z
_cell_length_a                   11.810(3)
_cell_length_b                   13.818(4)
_cell_length_c                   14.114(4)
_cell_angle_alpha                77.952(9)
_cell_angle_beta                 82.034(7)
_cell_angle_gamma                67.534(8)
_cell_volume                     2077.17
_exptl_crystal_colour            colorless
_exptl_crystal_description       parallelepiped
_cell_formula_units_Z            1
_exptl_crystal_preparation       'acetonitrile/di-isopropyl ether'
loop_
_atom_site_label
_atom_site_type_symbol
_atom_site_fract_x
_atom_site_fract_y
_atom_site_fract_z
Ag1 Ag -0.50524(5) -0.19350(5) 1.31546(4)
Ag2 Ag -0.96537(6) 0.42824(6) 1.24972(4)
N1 N -0.4891(6) -0.3273(6) 1.2338(5)
C1 C -0.4129(7) -0.4289(7) 1.2468(6)
C2 C -0.4195(7) -0.5014(7) 1.1979(6)
C3 C -0.5097(8) -0.4718(8) 1.1346(6)
C4 C -0.5878(7) -0.3658(7) 1.1197(6)
C5 C -0.5742(7) -0.2973(7) 1.1700(5)
C6 C -0.6567(7) -0.1837(7) 1.1520(6)
N2 N -0.6512(6) -0.1198(5) 1.2021(5)
C7 C -0.7313(7) -0.0131(7) 1.1860(6)
C8 C -0.8434(8) 0.0180(8) 1.1475(9)
C9 C -0.9196(7) 0.1245(7) 1.1360(8)
C10 C -0.8821(6) 0.1996(6) 1.1596(5)
C11 C -0.7694(7) 0.1678(7) 1.1980(6)
C12 C -0.6952(7) 0.0595(7) 1.2116(6)
N3 N -0.9552(5) 0.3084(5) 1.1481(4)
C13 C -1.0273(6) 0.3504(7) 1.0807(5)
C14 C -1.1087(6) 0.4630(6) 1.0712(6)
C15 C -1.1892(7) 0.5054(8) 0.9987(6)
C16 C -1.2662(7) 0.6111(7) 0.9907(7)
C17 C -1.2589(7) 0.6688(7) 1.0551(8)
C18 C -1.1757(8) 0.6208(7) 1.1281(7)
N4 N -1.1025(5) 0.5187(5) 1.1364(5)
N5 N -0.8299(6) 0.4278(6) 1.3462(5)
C19 C -0.7369(9) 0.4576(10) 1.3193(7)
C20 C -0.6617(10) 0.4614(12) 1.3855(8)
C21 C -0.6834(9) 0.4313(11) 1.4816(8)
C22 C -0.7821(8) 0.3989(8) 1.5116(6)
C23 C -0.8533(7) 0.3983(7) 1.4433(6)
C24 C -0.9544(7) 0.3609(7) 1.4730(6)
N6 N -1.0217(6) 0.3595(6) 1.4122(5)
C25 C -1.1203(8) 0.3231(8) 1.4408(6)
C26 C -1.1853(8) 0.3206(8) 1.3707(6)
C27 C -1.2825(8) 0.2833(8) 1.3934(6)
C28 C -1.3129(8) 0.2509(8) 1.4890(6)
C29 C -1.2426(14) 0.2529(15) 1.5597(7)
C30 C -1.1484(15) 0.2870(18) 1.5363(8)
N7 N -0.5908(6) -0.2125(6) 1.4787(5)
C31 C -0.5397(10) -0.1868(9) 1.5363(7)
C32 C -0.4377(8) -0.1502(8) 1.5013(7)
C33 C -0.3827(10) -0.1234(9) 1.5643(7)
C34 C -0.2851(11) -0.0907(12) 1.5303(9)
C35 C -0.2518(11) -0.0813(11) 1.4319(8)
C36 C -0.3125(8) -0.1095(8) 1.3731(6)
N8 N -0.4060(6) -0.1431(6) 1.4068(5)
H1 H -0.35050 -0.45350 1.29550
H2 H -0.61330 0.03640 1.24020
H3 H -0.74240 0.22240 1.21730
H4 H -0.35950 -0.57830 1.20660
H5 H -1.02850 0.31020 1.03040
H6 H -0.57380 -0.18650 1.60880
H7 H -0.71440 0.47570 1.24820
H8 H -0.71690 -0.15730 1.09850
H9 H -0.65420 -0.34010 1.07180
H10 H -0.62650 0.42910 1.52810
H11 H -0.59740 0.49160 1.36290
H12 H -0.51720 -0.52230 1.09630
H13 H -1.27090 0.23740 1.62910
H14 H -0.87170 -0.03600 1.12930
H15 H -1.00190 0.14810 1.10740
H16 H -1.08980 0.27880 1.58510
H17 H -1.19220 0.46220 0.95050
H18 H -1.32370 0.64500 0.93760
H19 H -1.31470 0.74860 1.05050
H20 H -1.17440 0.66940 1.17620
H21 H -0.41240 -0.12620 1.63490
H22 H -0.23480 -0.08030 1.57660
H23 H -0.18470 -0.05170 1.40180
H24 H -0.28280 -0.10960 1.30040
H25 H -1.16460 0.34700 1.30220
H26 H -0.80180 0.37550 1.58420
H27 H -0.97220 0.33530 1.54630
H28 H -1.32790 0.28110 1.34010
Ag1A Ag -1.49476(5) 0.19350(5) 1.68454(4)
Ag2A Ag -1.03463(6) -0.42824(6) 1.75028(4)
N1A N -1.5109(6) 0.3273(6) 1.7662(5)
C1A C -1.5871(7) 0.4289(7) 1.7532(6)
C2A C -1.5805(7) 0.5014(7) 1.8021(6)
C3A C -1.4903(8) 0.4718(8) 1.8654(6)
C4A C -1.4122(7) 0.3658(7) 1.8803(6)
C5A C -1.4258(7) 0.2973(7) 1.8300(5)
C6A C -1.3433(7) 0.1837(7) 1.8480(6)
N2A N -1.3488(6) 0.1198(5) 1.7979(5)
C7A C -1.2687(7) 0.0131(7) 1.8140(6)
C8A C -1.1566(8) -0.0180(8) 1.8525(9)
C9A C -1.0804(7) -0.1245(7) 1.8640(8)
C10A C -1.1179(6) -0.1996(6) 1.8404(5)
C11A C -1.2306(7) -0.1678(7) 1.8020(6)
C12A C -1.3048(7) -0.0595(7) 1.7884(6)
N3A N -1.0448(5) -0.3084(5) 1.8519(4)
C13A C -0.9727(6) -0.3504(7) 1.9193(5)
C14A C -0.8913(6) -0.4630(6) 1.9288(6)
C15A C -0.8108(7) -0.5054(8) 2.0013(6)
C16A C -0.7338(7) -0.6111(7) 2.0093(7)
C17A C -0.7411(7) -0.6688(7) 1.9449(8)
C18A C -0.8243(8) -0.6208(7) 1.8719(7)
N4A N -0.8975(5) -0.5187(5) 1.8636(5)
N5A N -1.1701(6) -0.4278(6) 1.6538(5)
C19A C -1.2631(9) -0.4576(10) 1.6807(7)
C20A C -1.3383(10) -0.4614(12) 1.6145(8)
C21A C -1.3166(9) -0.4313(11) 1.5184(8)
C22A C -1.2179(8) -0.3989(8) 1.4884(6)
C23A C -1.1467(7) -0.3983(7) 1.5567(6)
C24A C -1.0456(7) -0.3609(7) 1.5270(6)
N6A N -0.9783(6) -0.3595(6) 1.5878(5)
C25A C -0.8797(8) -0.3231(8) 1.5592(6)
C26A C -0.8147(8) -0.3206(8) 1.6293(6)
C27A C -0.7175(8) -0.2833(8) 1.6066(6)
C28A C -0.6871(8) -0.2509(8) 1.5110(6)
C29A C -0.7574(14) -0.2529(15) 1.4403(7)
C30A C -0.8516(15) -0.2870(18) 1.4637(8)
N7A N -1.4092(6) 0.2125(6) 1.5213(5)
C31A C -1.4603(10) 0.1868(9) 1.4637(7)
C32A C -1.5623(8) 0.1502(8) 1.4987(7)
C33A C -1.6173(10) 0.1234(9) 1.4357(7)
C34A C -1.7149(11) 0.0907(12) 1.4697(9)
C35A C -1.7482(11) 0.0813(11) 1.5681(8)
C36A C -1.6875(8) 0.1095(8) 1.6269(6)
N8A N -1.5940(6) 0.1431(6) 1.5932(5)
H1A H -1.64950 0.45350 1.70450
H2A H -1.38670 -0.03640 1.75980
H3A H -1.25760 -0.22240 1.78270
H4A H -1.64050 0.57830 1.79340
H5A H -0.97150 -0.31020 1.96960
H6A H -1.42620 0.18650 1.39120
H7A H -1.28560 -0.47570 1.75180
H8A H -1.28310 0.15730 1.90150
H9A H -1.34580 0.34010 1.92820
H10A H -1.37350 -0.42910 1.47190
H11A H -1.40260 -0.49160 1.63710
H12A H -1.48280 0.52230 1.90370
H13A H -0.72910 -0.23740 1.37090
H14A H -1.12830 0.03600 1.87070
H15A H -0.99810 -0.14810 1.89260
H16A H -0.91020 -0.27880 1.41490
H17A H -0.80780 -0.46220 2.04950
H18A H -0.67630 -0.64500 2.06240
H19A H -0.68530 -0.74860 1.94950
H20A H -0.82560 -0.66940 1.82380
H21A H -1.58760 0.12620 1.36510
H22A H -1.76520 0.08030 1.42340
H23A H -1.81530 0.05170 1.59820
H24A H -1.71720 0.10960 1.69960
H25A H -0.83540 -0.34700 1.69780
H26A H -1.19820 -0.37550 1.41580
H27A H -1.02780 -0.33530 1.45370
H28A H -0.67210 -0.28110 1.65990
loop_
_geom_bond_atom_site_label_1
_geom_bond_atom_site_label_2
_geom_bond_site_symmetry_1
_geom_bond_site_symmetry_2
Ag1 N1 1_555 1_555
Ag1 N2 1_555 1_555
Ag1 N7 1_555 1_555
Ag1 N8 1_555 1_555
Ag2 N3 1_555 1_555
Ag2 N4 1_555 1_555
Ag2 N5 1_555 1_555
Ag2 N6 1_555 1_555
N1 C1 1_555 1_555
N1 C5 1_555 1_555
C1 C2 1_555 1_555
C1 H1 1_555 1_555
C2 C3 1_555 1_555
C2 H4 1_555 1_555
C3 C4 1_555 1_555
C3 H12 1_555 1_555
C4 C5 1_555 1_555
C4 H9 1_555 1_555
C5 C6 1_555 1_555
C6 N2 1_555 1_555
C6 H8 1_555 1_555
N2 C7 1_555 1_555
C7 C8 1_555 1_555
C7 C12 1_555 1_555
C8 C9 1_555 1_555
C8 H14 1_555 1_555
C9 C10 1_555 1_555
C9 H15 1_555 1_555
C10 C11 1_555 1_555
C10 N3 1_555 1_555
C11 C12 1_555 1_555
C11 H3 1_555 1_555
C12 H2 1_555 1_555
N3 C13 1_555 1_555
C13 C14 1_555 1_555
C13 H5 1_555 1_555
C14 C15 1_555 1_555
C14 N4 1_555 1_555
C15 C16 1_555 1_555
C15 H17 1_555 1_555
C16 C17 1_555 1_555
C16 H18 1_555 1_555
C17 C18 1_555 1_555
C17 H19 1_555 1_555
C18 N4 1_555 1_555
C18 H20 1_555 1_555
N5 C19 1_555 1_555
N5 C23 1_555 1_555
C19 C20 1_555 1_555
C19 H7 1_555 1_555
C20 C21 1_555 1_555
C20 H11 1_555 1_555
C21 C22 1_555 1_555
C21 H10 1_555 1_555
C22 C23 1_555 1_555
C22 H26 1_555 1_555
C23 C24 1_555 1_555
C24 N6 1_555 1_555
C24 H27 1_555 1_555
N6 C25 1_555 1_555
C25 C26 1_555 1_555
C25 C30 1_555 1_555
C26 C27 1_555 1_555
C26 H25 1_555 1_555
C27 C28 1_555 1_555
C27 H28 1_555 1_555
C28 C29 1_555 1_555
C28 N7A 1_555 1_555
C29 C30 1_555 1_555
C29 H13 1_555 1_555
C30 H16 1_555 1_555
N7 C31 1_555 1_555
N7 C28A 1_555 1_555
C31 C32 1_555 1_555
C31 H6 1_555 1_555
C32 C33 1_555 1_555
C32 N8 1_555 1_555
C33 C34 1_555 1_555
C33 H21 1_555 1_555
C34 C35 1_555 1_555
C34 H22 1_555 1_555
C35 C36 1_555 1_555
C35 H23 1_555 1_555
C36 N8 1_555 1_555
C36 H24 1_555 1_555
Ag1A N1A 1_555 1_555
Ag1A N2A 1_555 1_555
Ag1A N7A 1_555 1_555
Ag1A N8A 1_555 1_555
Ag2A N3A 1_555 1_555
Ag2A N4A 1_555 1_555
Ag2A N5A 1_555 1_555
Ag2A N6A 1_555 1_555
N1A C1A 1_555 1_555
N1A C5A 1_555 1_555
C1A C2A 1_555 1_555
C1A H1A 1_555 1_555
C2A C3A 1_555 1_555
C2A H4A 1_555 1_555
C3A C4A 1_555 1_555
C3A H12A 1_555 1_555
C4A C5A 1_555 1_555
C4A H9A 1_555 1_555
C5A C6A 1_555 1_555
C6A N2A 1_555 1_555
C6A H8A 1_555 1_555
N2A C7A 1_555 1_555
C7A C8A 1_555 1_555
C7A C12A 1_555 1_555
C8A C9A 1_555 1_555
C8A H14A 1_555 1_555
C9A C10A 1_555 1_555
C9A H15A 1_555 1_555
C10A C11A 1_555 1_555
C10A N3A 1_555 1_555
C11A C12A 1_555 1_555
C11A H3A 1_555 1_555
C12A H2A 1_555 1_555
N3A C13A 1_555 1_555
C13A C14A 1_555 1_555
C13A H5A 1_555 1_555
C14A C15A 1_555 1_555
C14A N4A 1_555 1_555
C15A C16A 1_555 1_555
C15A H17A 1_555 1_555
C16A C17A 1_555 1_555
C16A H18A 1_555 1_555
C17A C18A 1_555 1_555
C17A H19A 1_555 1_555
C18A N4A 1_555 1_555
C18A H20A 1_555 1_555
N5A C19A 1_555 1_555
N5A C23A 1_555 1_555
C19A C20A 1_555 1_555
C19A H7A 1_555 1_555
C20A C21A 1_555 1_555
C20A H11A 1_555 1_555
C21A C22A 1_555 1_555
C21A H10A 1_555 1_555
C22A C23A 1_555 1_555
C22A H26A 1_555 1_555
C23A C24A 1_555 1_555
C24A N6A 1_555 1_555
C24A H27A 1_555 1_555
N6A C25A 1_555 1_555
C25A C26A 1_555 1_555
C25A C30A 1_555 1_555
C26A C27A 1_555 1_555
C26A H25A 1_555 1_555
C27A C28A 1_555 1_555
C27A H28A 1_555 1_555
C28A C29A 1_555 1_555
C29A C30A 1_555 1_555
C29A H13A 1_555 1_555
C30A H16A 1_555 1_555
N7A C31A 1_555 1_555
C31A C32A 1_555 1_555
C31A H6A 1_555 1_555
C32A C33A 1_555 1_555
C32A N8A 1_555 1_555
C33A C34A 1_555 1_555
C33A H21A 1_555 1_555
C34A C35A 1_555 1_555
C34A H22A 1_555 1_555
C35A C36A 1_555 1_555
C35A H23A 1_555 1_555
C36A N8A 1_555 1_555
C36A H24A 1_555 1_555

#END
