
#######################################################################
#
#                 Cambridge Crystallographic Data Centre
#                                CCDC 
#
#######################################################################
#
# If this CIF has been generated from an entry in the Cambridge 
# Structural Database, then it will include bibliographic, chemical, 
# crystal, experimental, refinement or atomic coordinate data resulting 
# from the CCDC's data processing and validation procedures.
#
#######################################################################

data_POBBOZ
_chemical_formula_moiety         'C90 H74 Cu6 N18 O82 W24,4(H2 O1)'
_chemical_name_systematic        
"decakis(\m~3~-oxido)-tetrakis(\m~2~-hydroxo)-pentacontakis(\m~2~-oxido)-hexakis(2,2':6',2''-terpyridine)-diaqua-hexadecakis(oxido)-hexa-copper-tetracosa-tungsten tetrahydrate"
_symmetry_cell_setting           monoclinic
_symmetry_space_group_name_H-M   'P 21/c'
_symmetry_Int_Tables_number      14
_space_group_name_Hall           '-P 2ybc'
loop_
_symmetry_equiv_pos_site_id
_symmetry_equiv_pos_as_xyz
1 x,y,z
2 -x,1/2+y,1/2-z
3 -x,-y,-z
4 x,1/2-y,1/2+z
_cell_length_a                   18.1203(9)
_cell_length_b                   13.3697(7)
_cell_length_c                   28.7433(15)
_cell_angle_alpha                90
_cell_angle_beta                 90.689(1)
_cell_angle_gamma                90
_cell_volume                     6962.93
_cell_formula_units_Z            2
loop_
_atom_site_label
_atom_site_type_symbol
_atom_site_fract_x
_atom_site_fract_y
_atom_site_fract_z
C1 C 0.1650(7) 0.5406(7) 0.3978(3)
C2 C 0.1723(7) 0.1958(8) 0.3926(3)
C3 C 0.0486(6) 0.2327(8) 0.3788(3)
C4 C 0.6459(6) 0.4486(7) 0.1511(4)
H1 H 0.59470 0.45200 0.15240
C5 C 0.7353(5) 0.2281(7) 0.0134(3)
C6 C 0.6861(6) 0.4983(8) 0.1832(4)
H2 H 0.66310 0.53360 0.20690
C7 C 0.7625(6) 0.4957(8) 0.1803(4)
H3 H 0.79130 0.53220 0.20130
C8 C 0.7957(5) 0.4390(8) 0.1464(3)
H4 H 0.84680 0.43410 0.14510
C9 C 0.7517(5) 0.3899(7) 0.1145(3)
C10 C 0.7797(5) 0.3273(7) 0.0754(3)
C11 C 0.8521(6) 0.3064(8) 0.0645(4)
H5 H 0.89090 0.33340 0.08180
C12 C 0.8654(7) 0.2444(8) 0.0272(4)
H6 H 0.91380 0.22880 0.01960
C13 C 0.8081(6) 0.2049(8) 0.0010(4)
H7 H 0.81740 0.16380 -0.02440
C14 C 0.6614(8) 0.1368(8) -0.0494(5)
H8 H 0.70400 0.11210 -0.06310
C15 C 0.5968(8) 0.1146(9) -0.0673(5)
H9 H 0.59410 0.07290 -0.09310
C16 C 0.5317(7) 0.1518(9) -0.0485(5)
H10 H 0.48580 0.13950 -0.06220
C17 C 0.5399(6) 0.2101(8) -0.0069(4)
H11 H 0.49800 0.23360 0.00790
C18 C 0.6670(6) 0.1970(7) -0.0103(3)
C19 C 0.3115(7) 0.1879(9) 0.3961(4)
H12 H 0.31090 0.14620 0.42200
C20 C 0.3785(8) 0.2161(10) 0.3769(4)
H13 H 0.42270 0.19280 0.38960
C21 C 0.3787(7) 0.2781(10) 0.3393(4)
H14 H 0.42260 0.29810 0.32570
C22 C 0.3111(6) 0.3100(8) 0.3223(4)
H15 H 0.31060 0.35220 0.29660
C23 C 0.2463(6) 0.2215(8) 0.3769(3)
C24 C 0.1522(8) 0.1250(9) 0.4269(4)
H16 H 0.18770 0.08960 0.44380
C25 C 0.0778(7) 0.1106(9) 0.4342(4)
H17 H 0.06330 0.06290 0.45580
C26 C 0.0262(7) 0.1626(9) 0.4115(4)
H18 H -0.02360 0.15240 0.41740
C27 C -0.0761(6) 0.3063(8) 0.3548(4)
H19 H -0.10120 0.26840 0.37670
C28 C 0.0002(6) 0.2964(8) 0.3499(3)
C29 C 0.0003(6) 0.4140(8) 0.2900(4)
H20 H 0.02580 0.44980 0.26760
C30 C -0.0759(6) 0.4278(9) 0.2936(5)
H21 H -0.10080 0.47260 0.27420
C31 C -0.1132(6) 0.3729(9) 0.3268(4)
H22 H -0.16380 0.38130 0.33010
C32 C 0.3974(7) 0.7960(12) 0.2451(5)
H23 H 0.44100 0.81850 0.23190
C33 C 0.3994(7) 0.7345(10) 0.2837(5)
H24 H 0.44480 0.71470 0.29600
C34 C 0.3362(6) 0.7021(8) 0.3041(4)
C35 C 0.2651(7) 0.7889(9) 0.2485(4)
H25 H 0.21910 0.80670 0.23640
C36 C 0.3883(8) 0.5993(10) 0.3718(5)
H26 H 0.43710 0.61550 0.36550
C37 C 0.3311(6) 0.6378(8) 0.3436(5)
C38 C 0.3725(8) 0.5384(10) 0.4083(5)
H27 H 0.41120 0.51270 0.42620
C39 C 0.3026(8) 0.5140(9) 0.4194(5)
H28 H 0.29280 0.47290 0.44470
C40 C 0.2447(7) 0.5529(7) 0.3914(3)
C41 C 0.1329(8) 0.4806(8) 0.4306(4)
H29 H 0.16260 0.44280 0.45050
C42 C 0.0589(8) 0.4760(8) 0.4343(4)
H30 H 0.03730 0.43450 0.45630
C43 C 0.0160(7) 0.5335(8) 0.4050(4)
H31 H -0.03520 0.53300 0.40750
C44 C 0.0493(6) 0.5912(8) 0.3723(4)
H32 H 0.02000 0.63030 0.35270
C45 C 0.3295(8) 0.8239(11) 0.2263(5)
H33 H 0.32640 0.86430 0.20000
Cu1 Cu 0.62460(6) 0.32319(8) 0.06446(4)
Cu2 Cu 0.14532(7) 0.31843(9) 0.31569(4)
Cu3 Cu 0.18158(7) 0.66717(9) 0.31813(4)
N1 N 0.7249(4) 0.2865(5) 0.0504(3)
N2 N 0.6769(4) 0.3940(6) 0.1169(2)
N3 N 0.6048(5) 0.2309(6) 0.0108(3)
N4 N 0.2476(5) 0.2844(6) 0.3403(3)
N5 N 0.1190(5) 0.2437(6) 0.3699(3)
N6 N 0.0374(4) 0.3512(6) 0.3176(3)
N7 N 0.1225(5) 0.5938(6) 0.3672(3)
N8 N 0.2619(5) 0.6134(6) 0.3550(3)
N9 N 0.2686(5) 0.7309(6) 0.2862(3)
O1 O 0.3893(3) 0.2489(4) 0.0664(2)
O2 O 0.4513(3) 0.2309(5) 0.1535(2)
O3 O 0.5269(3) 0.3291(5) 0.0864(2)
O4 O 0.4659(3) 0.4368(4) 0.1549(2)
O5 O 0.4020(3) 0.4435(4) 0.0695(2)
O6 O 0.3756(3) 0.5375(4) -0.0176(2)
O7 O 0.3082(4) 0.3592(4) 0.0119(2)
O8 O 0.2972(4) 0.0935(4) 0.0577(2)
O9 O 0.3540(4) 0.1744(5) -0.0229(2)
O10 O 0.1776(4) 0.1440(4) 0.1643(2)
O11 O 0.3255(3) 0.6184(4) 0.0653(2)
O12 O 0.2046(3) 0.5749(4) 0.1698(2)
O13 O 0.0812(3) 0.4787(4) 0.1964(2)
O14 O 0.1794(3) 0.3627(4) 0.1693(2)
O15 O 0.0800(3) 0.2792(4) 0.1018(2)
O16 O 0.0669(3) 0.2695(4) 0.1936(2)
O17 O 0.3447(3) 0.3493(4) 0.1473(2)
O18 O 0.0920(3) 0.4725(4) 0.1032(2)
O19 O 0.1786(3) 0.6276(4) 0.0817(2)
O20 O 0.1688(4) 0.5569(4) 0.2644(2)
O21 O 0.3209(4) 0.1363(4) 0.1501(2)
O22 O 0.1522(4) 0.1080(4) 0.0752(2)
O23 O 0.0552(4) 0.2009(5) 0.0139(3)
O24 O 0.0793(3) 0.5599(5) 0.0159(2)
O25 O 0.2284(3) 0.5273(4) 0.0080(2)
O26 O 0.2724(4) 0.7459(4) 0.1339(2)
O27 O 0.1681(3) 0.3580(4) 0.2550(2)
O28 O 0.4033(3) 0.3391(5) 0.2282(2)
O29 O 0.2885(3) 0.4627(4) 0.2241(2)
O30 O 0.2083(4) 0.2073(4) 0.0040(2)
O31 O 0.3454(3) 0.5645(4) 0.1558(2)
O32 O 0.2514(3) 0.4670(4) 0.0902(2)
O33 O 0.2375(3) 0.2538(4) 0.0881(2)
O34 O 0.1414(3) 0.3723(4) 0.0324(2)
O35 O 0.1402(4) 0.1654(5) 0.2593(2)
O36 O 0.2725(3) 0.2364(5) 0.2206(2)
O37 O -0.0311(3) 0.3858(5) 0.1483(2)
O38 O 0.4320(4) 0.5370(6) 0.2361(2)
O39 O 0.4037(4) 0.1332(5) 0.2320(3)
O40 O 0.2394(4) -0.0308(5) 0.1240(3)
O41 O 0.1034(4) 0.7502(5) 0.2910(2)
W1 W 0.26638(2) 0.62253(3) 0.120313(12)
W2 W 0.06425(2) 0.38114(3) 0.150133(12)
W3 W 0.18824(2) 0.48075(3) 0.217285(12)
W4 W 0.16721(2) 0.23651(3) 0.211413(12)
W5 W 0.32764(2) 0.49552(3) 0.030235(12)
W6 W 0.43652(2) 0.33446(3) 0.108401(13)
W7 W 0.14716(2) 0.50875(3) 0.049457(12)
W8 W 0.30716(2) 0.21994(3) 0.024083(13)
W9 W 0.12784(2) 0.23477(3) 0.048678(14)
W10 W 0.24119(2) 0.09460(3) 0.113025(14)
W11 W 0.36819(2) 0.22313(3) 0.196196(14)
W12 W 0.38787(2) 0.46598(3) 0.195425(13)
C1B C 0.8350(7) 0.4594(7) -0.3978(3)
C2B C 0.8277(7) 0.8042(8) -0.3926(3)
C3B C 0.9514(6) 0.7673(8) -0.3788(3)
C4B C 0.3541(6) 0.5514(7) -0.1511(4)
H1B H 0.40530 0.54800 -0.15240
C5B C 0.2647(5) 0.7719(7) -0.0134(3)
C6B C 0.3139(6) 0.5017(8) -0.1832(4)
H2B H 0.33690 0.46640 -0.20690
C7B C 0.2375(6) 0.5043(8) -0.1803(4)
H3B H 0.20870 0.46780 -0.20130
C8B C 0.2043(5) 0.5610(8) -0.1464(3)
H4B H 0.15320 0.56590 -0.14510
C9B C 0.2483(5) 0.6101(7) -0.1145(3)
C10B C 0.2203(5) 0.6727(7) -0.0754(3)
C11B C 0.1479(6) 0.6936(8) -0.0645(4)
H5B H 0.10910 0.66660 -0.08180
C12B C 0.1346(7) 0.7556(8) -0.0272(4)
H6B H 0.08620 0.77120 -0.01960
C13B C 0.1919(6) 0.7951(8) -0.0010(4)
H7B H 0.18260 0.83620 0.02440
C14B C 0.3386(8) 0.8632(8) 0.0494(5)
H8B H 0.29600 0.88790 0.06310
C15B C 0.4032(8) 0.8854(9) 0.0673(5)
H9B H 0.40590 0.92710 0.09310
C16B C 0.4683(7) 0.8482(9) 0.0485(5)
H10B H 0.51420 0.86050 0.06220
C17B C 0.4601(6) 0.7899(8) 0.0069(4)
H11B H 0.50200 0.76640 -0.00790
C18B C 0.3330(6) 0.8030(7) 0.0103(3)
C19B C 0.6885(7) 0.8121(9) -0.3961(4)
H12B H 0.68910 0.85380 -0.42200
C20B C 0.6215(8) 0.7839(10) -0.3769(4)
H13B H 0.57730 0.80720 -0.38960
C21B C 0.6213(7) 0.7219(10) -0.3393(4)
H14B H 0.57740 0.70190 -0.32570
C22B C 0.6889(6) 0.6900(8) -0.3223(4)
H15B H 0.68940 0.64780 -0.29660
C23B C 0.7537(6) 0.7785(8) -0.3769(3)
C24B C 0.8478(8) 0.8750(9) -0.4269(4)
H16B H 0.81230 0.91040 -0.44380
C25B C 0.9222(7) 0.8894(9) -0.4342(4)
H17B H 0.93670 0.93710 -0.45580
C26B C 0.9738(7) 0.8374(9) -0.4115(4)
H18B H 1.02360 0.84760 -0.41740
C27B C 1.0761(6) 0.6937(8) -0.3548(4)
H19B H 1.10120 0.73160 -0.37670
C28B C 0.9998(6) 0.7036(8) -0.3499(3)
C29B C 0.9997(6) 0.5860(8) -0.2900(4)
H20B H 0.97420 0.55020 -0.26760
C30B C 1.0759(6) 0.5722(9) -0.2936(5)
H21B H 1.10080 0.52740 -0.27420
C31B C 1.1132(6) 0.6271(9) -0.3268(4)
H22B H 1.16380 0.61870 -0.33010
C32B C 0.6026(7) 0.2040(12) -0.2451(5)
H23B H 0.55900 0.18150 -0.23190
C33B C 0.6006(7) 0.2655(10) -0.2837(5)
H24B H 0.55520 0.28530 -0.29600
C34B C 0.6638(6) 0.2979(8) -0.3041(4)
C35B C 0.7349(7) 0.2111(9) -0.2485(4)
H25B H 0.78090 0.19330 -0.23640
C36B C 0.6117(8) 0.4007(10) -0.3718(5)
H26B H 0.56290 0.38450 -0.36550
C37B C 0.6689(6) 0.3622(8) -0.3436(5)
C38B C 0.6275(8) 0.4616(10) -0.4083(5)
H27B H 0.58880 0.48730 -0.42620
C39B C 0.6974(8) 0.4860(9) -0.4194(5)
H28B H 0.70720 0.52710 -0.44470
C40B C 0.7553(7) 0.4471(7) -0.3914(3)
C41B C 0.8671(8) 0.5194(8) -0.4306(4)
H29B H 0.83740 0.55720 -0.45050
C42B C 0.9411(8) 0.5240(8) -0.4343(4)
H30B H 0.96270 0.56550 -0.45630
C43B C 0.9840(7) 0.4665(8) -0.4050(4)
H31B H 1.03520 0.46700 -0.40750
C44B C 0.9507(6) 0.4088(8) -0.3723(4)
H32B H 0.98000 0.36970 -0.35270
C45B C 0.6705(8) 0.1761(11) -0.2263(5)
H33B H 0.67360 0.13570 -0.20000
Cu1B Cu 0.37540(6) 0.67681(8) -0.06446(4)
Cu2B Cu 0.85468(7) 0.68157(9) -0.31569(4)
Cu3B Cu 0.81842(7) 0.33283(9) -0.31813(4)
N1B N 0.2751(4) 0.7135(5) -0.0504(3)
N2B N 0.3231(4) 0.6060(6) -0.1169(2)
N3B N 0.3952(5) 0.7691(6) -0.0108(3)
N4B N 0.7524(5) 0.7156(6) -0.3403(3)
N5B N 0.8810(5) 0.7563(6) -0.3699(3)
N6B N 0.9626(4) 0.6488(6) -0.3176(3)
N7B N 0.8775(5) 0.4062(6) -0.3672(3)
N8B N 0.7381(5) 0.3866(6) -0.3550(3)
N9B N 0.7314(5) 0.2691(6) -0.2862(3)
O1B O 0.6107(3) 0.7511(4) -0.0664(2)
O2B O 0.5487(3) 0.7691(5) -0.1535(2)
O3B O 0.4731(3) 0.6709(5) -0.0864(2)
O4B O 0.5341(3) 0.5632(4) -0.1549(2)
O5B O 0.5980(3) 0.5565(4) -0.0695(2)
O6B O 0.6244(3) 0.4625(4) 0.0176(2)
O7B O 0.6918(4) 0.6408(4) -0.0119(2)
O8B O 0.7028(4) 0.9065(4) -0.0577(2)
O9B O 0.6460(4) 0.8256(5) 0.0229(2)
O10B O 0.8224(4) 0.8560(4) -0.1643(2)
O11B O 0.6745(3) 0.3816(4) -0.0653(2)
O12B O 0.7954(3) 0.4251(4) -0.1698(2)
O13B O 0.9188(3) 0.5213(4) -0.1964(2)
O14B O 0.8206(3) 0.6373(4) -0.1693(2)
O15B O 0.9200(3) 0.7208(4) -0.1018(2)
O16B O 0.9331(3) 0.7305(4) -0.1936(2)
O17B O 0.6553(3) 0.6507(4) -0.1473(2)
O18B O 0.9080(3) 0.5275(4) -0.1032(2)
O19B O 0.8214(3) 0.3724(4) -0.0817(2)
O20B O 0.8312(4) 0.4431(4) -0.2644(2)
O21B O 0.6791(4) 0.8637(4) -0.1501(2)
O22B O 0.8478(4) 0.8920(4) -0.0752(2)
O23B O 0.9448(4) 0.7991(5) -0.0139(3)
O24B O 0.9207(3) 0.4401(5) -0.0159(2)
O25B O 0.7716(3) 0.4727(4) -0.0080(2)
O26B O 0.7276(4) 0.2541(4) -0.1339(2)
O27B O 0.8319(3) 0.6420(4) -0.2550(2)
O28B O 0.5967(3) 0.6609(5) -0.2282(2)
O29B O 0.7115(3) 0.5373(4) -0.2241(2)
O30B O 0.7917(4) 0.7927(4) -0.0040(2)
O31B O 0.6546(3) 0.4355(4) -0.1558(2)
O32B O 0.7486(3) 0.5330(4) -0.0902(2)
O33B O 0.7625(3) 0.7462(4) -0.0881(2)
O34B O 0.8586(3) 0.6277(4) -0.0324(2)
O35B O 0.8598(4) 0.8346(5) -0.2593(2)
O36B O 0.7275(3) 0.7636(5) -0.2206(2)
O37B O 1.0311(3) 0.6142(5) -0.1483(2)
O38B O 0.5680(4) 0.4630(6) -0.2361(2)
O39B O 0.5963(4) 0.8668(5) -0.2320(3)
O40B O 0.7606(4) 1.0308(5) -0.1240(3)
O41B O 0.8966(4) 0.2498(5) -0.2910(2)
W1B W 0.73362(2) 0.37747(3) -0.120313(12)
W2B W 0.93575(2) 0.61886(3) -0.150133(12)
W3B W 0.81176(2) 0.51925(3) -0.217285(12)
W4B W 0.83279(2) 0.76349(3) -0.211413(12)
W5B W 0.67236(2) 0.50448(3) -0.030235(12)
W6B W 0.56348(2) 0.66554(3) -0.108401(13)
W7B W 0.85284(2) 0.49125(3) -0.049457(12)
W8B W 0.69284(2) 0.78006(3) -0.024083(13)
W9B W 0.87216(2) 0.76523(3) -0.048678(14)
W10B W 0.75881(2) 0.90540(3) -0.113025(14)
W11B W 0.63181(2) 0.77687(3) -0.196196(14)
W12B W 0.61213(2) 0.53402(3) -0.195425(13)
loop_
_geom_bond_atom_site_label_1
_geom_bond_atom_site_label_2
_geom_bond_site_symmetry_1
_geom_bond_site_symmetry_2
C1 C40 1_555 1_555
C1 C41 1_555 1_555
C1 N7 1_555 1_555
C2 C23 1_555 1_555
C2 C24 1_555 1_555
C2 N5 1_555 1_555
C3 C26 1_555 1_555
C3 C28 1_555 1_555
C3 N5 1_555 1_555
C4 H1 1_555 1_555
C4 C6 1_555 1_555
C4 N2 1_555 1_555
C5 C13 1_555 1_555
C5 C18 1_555 1_555
C5 N1 1_555 1_555
C6 H2 1_555 1_555
C6 C7 1_555 1_555
C7 H3 1_555 1_555
C7 C8 1_555 1_555
C8 H4 1_555 1_555
C8 C9 1_555 1_555
C9 C10 1_555 1_555
C9 N2 1_555 1_555
C10 C11 1_555 1_555
C10 N1 1_555 1_555
C11 H5 1_555 1_555
C11 C12 1_555 1_555
C12 H6 1_555 1_555
C12 C13 1_555 1_555
C13 H7 1_555 1_555
C14 H8 1_555 1_555
C14 C15 1_555 1_555
C14 C18 1_555 1_555
C15 H9 1_555 1_555
C15 C16 1_555 1_555
C16 H10 1_555 1_555
C16 C17 1_555 1_555
C17 H11 1_555 1_555
C17 N3 1_555 1_555
C18 N3 1_555 1_555
C19 H12 1_555 1_555
C19 C20 1_555 1_555
C19 C23 1_555 1_555
C20 H13 1_555 1_555
C20 C21 1_555 1_555
C21 H14 1_555 1_555
C21 C22 1_555 1_555
C22 H15 1_555 1_555
C22 N4 1_555 1_555
C23 N4 1_555 1_555
C24 H16 1_555 1_555
C24 C25 1_555 1_555
C25 H17 1_555 1_555
C25 C26 1_555 1_555
C26 H18 1_555 1_555
C27 H19 1_555 1_555
C27 C28 1_555 1_555
C27 C31 1_555 1_555
C28 N6 1_555 1_555
C29 H20 1_555 1_555
C29 C30 1_555 1_555
C29 N6 1_555 1_555
C30 H21 1_555 1_555
C30 C31 1_555 1_555
C31 H22 1_555 1_555
C32 H23 1_555 1_555
C32 C33 1_555 1_555
C32 C45 1_555 1_555
C33 H24 1_555 1_555
C33 C34 1_555 1_555
C34 C37 1_555 1_555
C34 N9 1_555 1_555
C35 H25 1_555 1_555
C35 C45 1_555 1_555
C35 N9 1_555 1_555
C36 H26 1_555 1_555
C36 C37 1_555 1_555
C36 C38 1_555 1_555
C37 N8 1_555 1_555
C38 H27 1_555 1_555
C38 C39 1_555 1_555
C39 H28 1_555 1_555
C39 C40 1_555 1_555
C40 N8 1_555 1_555
C41 H29 1_555 1_555
C41 C42 1_555 1_555
C42 H30 1_555 1_555
C42 C43 1_555 1_555
C43 H31 1_555 1_555
C43 C44 1_555 1_555
C44 H32 1_555 1_555
C44 N7 1_555 1_555
C45 H33 1_555 1_555
Cu1 N1 1_555 1_555
Cu1 N2 1_555 1_555
Cu1 N3 1_555 1_555
Cu1 O3 1_555 1_555
Cu1 O6B 1_555 1_555
Cu2 N4 1_555 1_555
Cu2 N5 1_555 1_555
Cu2 N6 1_555 1_555
Cu2 O27 1_555 1_555
Cu2 O35 1_555 1_555
Cu3 N7 1_555 1_555
Cu3 N8 1_555 1_555
Cu3 N9 1_555 1_555
Cu3 O20 1_555 1_555
Cu3 O41 1_555 1_555
O1 W6 1_555 1_555
O1 W8 1_555 1_555
O2 W6 1_555 1_555
O2 W11 1_555 1_555
O3 W6 1_555 1_555
O4 W6 1_555 1_555
O4 W12 1_555 1_555
O5 W5 1_555 1_555
O5 W6 1_555 1_555
O6 W5 1_555 1_555
O6 Cu1B 1_555 1_555
O7 W5 1_555 1_555
O7 W8 1_555 1_555
O8 W8 1_555 1_555
O8 W10 1_555 1_555
O9 W8 1_555 1_555
O10 W4 1_555 1_555
O10 W10 1_555 1_555
O11 W1 1_555 1_555
O11 W5 1_555 1_555
O12 W1 1_555 1_555
O12 W3 1_555 1_555
O13 W2 1_555 1_555
O13 W3 1_555 1_555
O14 W2 1_555 1_555
O14 W3 1_555 1_555
O14 W4 1_555 1_555
O15 W2 1_555 1_555
O15 W9 1_555 1_555
O16 W2 1_555 1_555
O16 W4 1_555 1_555
O17 W6 1_555 1_555
O17 W11 1_555 1_555
O17 W12 1_555 1_555
O18 W2 1_555 1_555
O18 W7 1_555 1_555
O19 W1 1_555 1_555
O19 W7 1_555 1_555
O20 W3 1_555 1_555
O21 W10 1_555 1_555
O21 W11 1_555 1_555
O22 W9 1_555 1_555
O22 W10 1_555 1_555
O23 W9 1_555 1_555
O24 W7 1_555 1_555
O25 W5 1_555 1_555
O25 W7 1_555 1_555
O26 W1 1_555 1_555
O27 W3 1_555 1_555
O27 W4 1_555 1_555
O28 W11 1_555 1_555
O28 W12 1_555 1_555
O29 W3 1_555 1_555
O29 W12 1_555 1_555
O30 W8 1_555 1_555
O30 W9 1_555 1_555
O31 W1 1_555 1_555
O31 W12 1_555 1_555
O32 W1 1_555 1_555
O32 W5 1_555 1_555
O32 W7 1_555 1_555
O33 W8 1_555 1_555
O33 W9 1_555 1_555
O33 W10 1_555 1_555
O34 W7 1_555 1_555
O34 W9 1_555 1_555
O35 W4 1_555 1_555
O36 W4 1_555 1_555
O36 W11 1_555 1_555
O37 W2 1_555 1_555
O38 W12 1_555 1_555
O39 W11 1_555 1_555
O40 W10 1_555 1_555
C1B C40B 1_555 1_555
C1B C41B 1_555 1_555
C1B N7B 1_555 1_555
C2B C23B 1_555 1_555
C2B C24B 1_555 1_555
C2B N5B 1_555 1_555
C3B C26B 1_555 1_555
C3B C28B 1_555 1_555
C3B N5B 1_555 1_555
C4B H1B 1_555 1_555
C4B C6B 1_555 1_555
C4B N2B 1_555 1_555
C5B C13B 1_555 1_555
C5B C18B 1_555 1_555
C5B N1B 1_555 1_555
C6B H2B 1_555 1_555
C6B C7B 1_555 1_555
C7B H3B 1_555 1_555
C7B C8B 1_555 1_555
C8B H4B 1_555 1_555
C8B C9B 1_555 1_555
C9B C10B 1_555 1_555
C9B N2B 1_555 1_555
C10B C11B 1_555 1_555
C10B N1B 1_555 1_555
C11B H5B 1_555 1_555
C11B C12B 1_555 1_555
C12B H6B 1_555 1_555
C12B C13B 1_555 1_555
C13B H7B 1_555 1_555
C14B H8B 1_555 1_555
C14B C15B 1_555 1_555
C14B C18B 1_555 1_555
C15B H9B 1_555 1_555
C15B C16B 1_555 1_555
C16B H10B 1_555 1_555
C16B C17B 1_555 1_555
C17B H11B 1_555 1_555
C17B N3B 1_555 1_555
C18B N3B 1_555 1_555
C19B H12B 1_555 1_555
C19B C20B 1_555 1_555
C19B C23B 1_555 1_555
C20B H13B 1_555 1_555
C20B C21B 1_555 1_555
C21B H14B 1_555 1_555
C21B C22B 1_555 1_555
C22B H15B 1_555 1_555
C22B N4B 1_555 1_555
C23B N4B 1_555 1_555
C24B H16B 1_555 1_555
C24B C25B 1_555 1_555
C25B H17B 1_555 1_555
C25B C26B 1_555 1_555
C26B H18B 1_555 1_555
C27B H19B 1_555 1_555
C27B C28B 1_555 1_555
C27B C31B 1_555 1_555
C28B N6B 1_555 1_555
C29B H20B 1_555 1_555
C29B C30B 1_555 1_555
C29B N6B 1_555 1_555
C30B H21B 1_555 1_555
C30B C31B 1_555 1_555
C31B H22B 1_555 1_555
C32B H23B 1_555 1_555
C32B C33B 1_555 1_555
C32B C45B 1_555 1_555
C33B H24B 1_555 1_555
C33B C34B 1_555 1_555
C34B C37B 1_555 1_555
C34B N9B 1_555 1_555
C35B H25B 1_555 1_555
C35B C45B 1_555 1_555
C35B N9B 1_555 1_555
C36B H26B 1_555 1_555
C36B C37B 1_555 1_555
C36B C38B 1_555 1_555
C37B N8B 1_555 1_555
C38B H27B 1_555 1_555
C38B C39B 1_555 1_555
C39B H28B 1_555 1_555
C39B C40B 1_555 1_555
C40B N8B 1_555 1_555
C41B H29B 1_555 1_555
C41B C42B 1_555 1_555
C42B H30B 1_555 1_555
C42B C43B 1_555 1_555
C43B H31B 1_555 1_555
C43B C44B 1_555 1_555
C44B H32B 1_555 1_555
C44B N7B 1_555 1_555
C45B H33B 1_555 1_555
Cu1B N1B 1_555 1_555
Cu1B N2B 1_555 1_555
Cu1B N3B 1_555 1_555
Cu1B O3B 1_555 1_555
Cu2B N4B 1_555 1_555
Cu2B N5B 1_555 1_555
Cu2B N6B 1_555 1_555
Cu2B O27B 1_555 1_555
Cu2B O35B 1_555 1_555
Cu3B N7B 1_555 1_555
Cu3B N8B 1_555 1_555
Cu3B N9B 1_555 1_555
Cu3B O20B 1_555 1_555
Cu3B O41B 1_555 1_555
O1B W6B 1_555 1_555
O1B W8B 1_555 1_555
O2B W6B 1_555 1_555
O2B W11B 1_555 1_555
O3B W6B 1_555 1_555
O4B W6B 1_555 1_555
O4B W12B 1_555 1_555
O5B W5B 1_555 1_555
O5B W6B 1_555 1_555
O6B W5B 1_555 1_555
O7B W5B 1_555 1_555
O7B W8B 1_555 1_555
O8B W8B 1_555 1_555
O8B W10B 1_555 1_555
O9B W8B 1_555 1_555
O10B W4B 1_555 1_555
O10B W10B 1_555 1_555
O11B W1B 1_555 1_555
O11B W5B 1_555 1_555
O12B W1B 1_555 1_555
O12B W3B 1_555 1_555
O13B W2B 1_555 1_555
O13B W3B 1_555 1_555
O14B W2B 1_555 1_555
O14B W3B 1_555 1_555
O14B W4B 1_555 1_555
O15B W2B 1_555 1_555
O15B W9B 1_555 1_555
O16B W2B 1_555 1_555
O16B W4B 1_555 1_555
O17B W6B 1_555 1_555
O17B W11B 1_555 1_555
O17B W12B 1_555 1_555
O18B W2B 1_555 1_555
O18B W7B 1_555 1_555
O19B W1B 1_555 1_555
O19B W7B 1_555 1_555
O20B W3B 1_555 1_555
O21B W10B 1_555 1_555
O21B W11B 1_555 1_555
O22B W9B 1_555 1_555
O22B W10B 1_555 1_555
O23B W9B 1_555 1_555
O24B W7B 1_555 1_555
O25B W5B 1_555 1_555
O25B W7B 1_555 1_555
O26B W1B 1_555 1_555
O27B W3B 1_555 1_555
O27B W4B 1_555 1_555
O28B W11B 1_555 1_555
O28B W12B 1_555 1_555
O29B W3B 1_555 1_555
O29B W12B 1_555 1_555
O30B W8B 1_555 1_555
O30B W9B 1_555 1_555
O31B W1B 1_555 1_555
O31B W12B 1_555 1_555
O32B W1B 1_555 1_555
O32B W5B 1_555 1_555
O32B W7B 1_555 1_555
O33B W8B 1_555 1_555
O33B W9B 1_555 1_555
O33B W10B 1_555 1_555
O34B W7B 1_555 1_555
O34B W9B 1_555 1_555
O35B W4B 1_555 1_555
O36B W4B 1_555 1_555
O36B W11B 1_555 1_555
O37B W2B 1_555 1_555
O38B W12B 1_555 1_555
O39B W11B 1_555 1_555
O40B W10B 1_555 1_555

#END
