
#######################################################################
#
#                 Cambridge Crystallographic Data Centre
#                                CCDC 
#
#######################################################################
#
# If this CIF has been generated from an entry in the Cambridge 
# Structural Database, then it will include bibliographic, chemical, 
# crystal, experimental, refinement or atomic coordinate data resulting 
# from the CCDC's data processing and validation procedures.
#
#######################################################################

data_POZJOE
_chemical_formula_moiety         
'C90 H120 N30 Pd6 12+,2(C12 H18 N2 Ni1 O2),12(N1 O3 1-),34(H2 O1)'
_chemical_name_systematic        
"bis(\m~3~-2,4,6-tris(4-Pyridinyl)-1,3,5-triazine-N,N',N'')-tris(\m~2~-2,2',6,6'-tetramethyl-4,4'-bipyridine)-hexakis(ethylene-1,2-diamine)-hexa-palladium bis(ethylenebis(acetylacetoniminato-N,O)-nickel(ii)) clathrate dodecanitrate hydrate"
_symmetry_cell_setting           monoclinic
_symmetry_space_group_name_H-M   'P 21/c'
_symmetry_Int_Tables_number      14
_space_group_name_Hall           '-P 2ybc'
loop_
_symmetry_equiv_pos_site_id
_symmetry_equiv_pos_as_xyz
1 x,y,z
2 -x,1/2+y,1/2-z
3 -x,-y,-z
4 x,1/2-y,1/2+z
_cell_length_a                   18.623(3)
_cell_length_b                   36.669(6)
_cell_length_c                   26.997(5)
_cell_angle_alpha                90
_cell_angle_beta                 107.203(2)
_cell_angle_gamma                90
_cell_volume                     17611.1
_exptl_crystal_colour            'dark green'
_exptl_crystal_description       needle
_chemical_melting_point          473.15
_cell_formula_units_Z            4
loop_
_atom_site_label
_atom_site_type_symbol
_atom_site_fract_x
_atom_site_fract_y
_atom_site_fract_z
Pd1 Pd 0.985238(17) 0.900484(9) 0.576770(12)
Pd2 Pd 0.78214(2) 0.558108(9) 0.508029(13)
Pd3 Pd 0.271114(18) 0.817174(9) 0.391541(13)
Pd4 Pd 1.118981(18) 0.832855(9) 0.995642(13)
Pd5 Pd 0.657448(18) 0.544194(8) 0.886723(13)
Pd6 Pd 0.418139(18) 0.885023(9) 0.811408(12)
C1 C 0.9170(2) 0.82699(12) 0.56221(18)
H1 H 0.96830 0.81980 0.57330
C2 C 0.8628(2) 0.80048(11) 0.55169(17)
H2 H 0.87640 0.77550 0.55580
C3 C 0.7876(2) 0.81059(11) 0.53497(16)
C4 C 0.7709(2) 0.84762(11) 0.53094(17)
H3 H 0.72010 0.85560 0.52080
C5 C 0.8285(2) 0.87254(11) 0.54177(16)
H4 H 0.81640 0.89780 0.53790
C6 C 0.6780(3) 0.62182(12) 0.49789(18)
H5 H 0.63990 0.60370 0.48860
C7 C 0.6570(2) 0.65791(11) 0.49855(17)
H6 H 0.60540 0.66440 0.48950
C8 C 0.7122(2) 0.68449(11) 0.51252(15)
C9 C 0.7867(2) 0.67384(12) 0.52696(18)
H7 H 0.82560 0.69140 0.53830
C10 C 0.8039(3) 0.63735(12) 0.52474(19)
H8 H 0.85520 0.63020 0.53390
C11 C 0.4352(2) 0.82642(12) 0.43292(18)
H9 H 0.42200 0.85150 0.43210
C12 C 0.5090(2) 0.81657(12) 0.45513(18)
H10 H 0.54620 0.83460 0.46850
C13 C 0.5283(2) 0.77988(11) 0.45784(16)
C14 C 0.4727(2) 0.75478(12) 0.43538(17)
H11 H 0.48430 0.72950 0.43580
C15 C 0.4002(3) 0.76668(13) 0.41241(18)
H12 H 0.36280 0.74940 0.39610
C16 C 0.7277(2) 0.78264(11) 0.52053(15)
C17 C 0.6922(2) 0.72387(11) 0.50962(15)
C18 C 0.6063(2) 0.76834(11) 0.48389(15)
C19 C 0.9562(2) 0.82875(12) 0.96314(18)
H13 H 0.96140 0.85450 0.96340
C20 C 0.8860(2) 0.81368(12) 0.94306(18)
H14 H 0.84340 0.82890 0.92970
C21 C 0.8779(2) 0.77613(12) 0.94239(16)
C22 C 0.9408(2) 0.75510(12) 0.96482(18)
H15 H 0.93680 0.72940 0.96690
C23 C 1.0094(3) 0.77208(12) 0.98415(18)
H16 H 1.05260 0.75760 0.99930
C24 C 0.4860(3) 0.81016(12) 0.82766(17)
H17 H 0.43560 0.80220 0.81300
C25 C 0.5418(2) 0.78440(11) 0.84313(17)
H18 H 0.53000 0.75920 0.83900
C26 C 0.6154(2) 0.79566(11) 0.86479(16)
C27 C 0.6297(3) 0.83282(12) 0.86925(18)
H19 H 0.67970 0.84150 0.88340
C28 C 0.5715(3) 0.85674(12) 0.85317(18)
H20 H 0.58200 0.88210 0.85670
C29 C 0.7547(3) 0.61116(12) 0.90513(17)
H21 H 0.79540 0.59440 0.91180
C30 C 0.7699(2) 0.64805(11) 0.90652(16)
H22 H 0.82020 0.65650 0.91440
C31 C 0.7106(2) 0.67261(11) 0.89624(16)
C32 C 0.6380(3) 0.65921(12) 0.88586(18)
H23 H 0.59630 0.67540 0.87870
C33 C 0.6274(3) 0.62200(12) 0.88609(19)
H24 H 0.57780 0.61290 0.88000
C34 C 0.8023(2) 0.76005(11) 0.91930(16)
C35 C 0.6784(2) 0.76952(11) 0.88292(15)
C36 C 0.7238(2) 0.71257(11) 0.89735(15)
C37 C 0.9054(3) 0.93117(13) 0.65566(18)
H25 H 0.90470 0.93440 0.61950
H26 H 0.91760 0.95450 0.67400
H27 H 0.85590 0.92290 0.65680
C38 C 0.9634(2) 0.90342(11) 0.68109(17)
C39 C 0.9758(2) 0.89435(12) 0.73275(17)
H28 H 0.94680 0.90570 0.75210
C40 C 1.0303(2) 0.86877(12) 0.75661(17)
C41 C 1.0712(2) 0.85311(12) 0.72688(17)
H29 H 1.10830 0.83530 0.74200
C42 C 1.0590(2) 0.86289(11) 0.67556(16)
C43 C 1.1078(2) 0.84870(13) 0.64491(18)
H30 H 1.09090 0.85870 0.60970
H31 H 1.10470 0.82200 0.64330
H32 H 1.16000 0.85610 0.66160
C44 C 1.0618(3) 0.90756(13) 0.93876(19)
H33 H 1.07940 0.89760 0.97400
H34 H 1.00990 0.91610 0.93180
H35 H 1.09400 0.92800 0.93550
C45 C 1.0651(2) 0.87855(12) 0.90069(17)
C46 C 1.0435(3) 0.88628(12) 0.84819(17)
H36 H 1.02590 0.91000 0.83660
C47 C 1.0471(2) 0.85996(12) 0.81233(16)
C48 C 1.0708(3) 0.82537(12) 0.83094(17)
H37 H 1.07270 0.80650 0.80730
C49 C 1.0914(2) 0.81820(12) 0.88320(17)
C50 C 1.1202(3) 0.78140(14) 0.90333(19)
H38 H 1.11840 0.76520 0.87420
H39 H 1.08890 0.77140 0.92350
H40 H 1.17220 0.78350 0.92550
C51 C 0.8905(3) 0.56783(14) 0.6219(2)
H41 H 0.89210 0.56850 0.58600
H42 H 0.92670 0.54980 0.64150
H43 H 0.90340 0.59190 0.63780
C52 C 0.8127(3) 0.55745(12) 0.62276(18)
C53 C 0.7960(3) 0.55512(12) 0.66919(18)
H44 H 0.83400 0.55980 0.70080
C54 C 0.7241(3) 0.54604(11) 0.67012(17)
C55 C 0.6714(3) 0.53821(12) 0.62315(18)
H45 H 0.62150 0.53210 0.62230
C56 C 0.6907(3) 0.53915(12) 0.57718(18)
C57 C 0.6367(3) 0.52622(15) 0.5279(2)
H46 H 0.65920 0.52890 0.49950
H47 H 0.59050 0.54080 0.52020
H48 H 0.62470 0.50050 0.53130
C58 C 0.8050(3) 0.52475(13) 0.86089(18)
H49 H 0.78460 0.52550 0.89040
H50 H 0.84670 0.54210 0.86660
H51 H 0.82320 0.50010 0.85730
C59 C 0.7449(2) 0.53475(11) 0.81262(17)
C60 C 0.7608(3) 0.53536(12) 0.76553(18)
H52 H 0.81010 0.52960 0.76460
C61 C 0.7054(3) 0.54430(12) 0.71947(17)
C62 C 0.6345(3) 0.55155(12) 0.72349(18)
H53 H 0.59480 0.55700 0.69300
C63 C 0.6200(3) 0.55110(13) 0.77088(19)
C64 C 0.5434(3) 0.55975(19) 0.7744(2)
H54 H 0.54360 0.55840 0.81070
H55 H 0.50720 0.54210 0.75380
H56 H 0.52920 0.58440 0.76110
C65 C 0.2859(3) 0.76523(13) 0.48739(19)
H57 H 0.27150 0.76390 0.44950
H58 H 0.24650 0.75420 0.49980
H59 H 0.33330 0.75210 0.50210
C66 C 0.2959(2) 0.80432(12) 0.50402(17)
C67 C 0.3154(2) 0.81218(12) 0.55626(17)
H60 H 0.32100 0.79300 0.58070
C68 C 0.3268(2) 0.84801(12) 0.57322(17)
C69 C 0.3154(3) 0.87494(12) 0.53578(17)
H61 H 0.32180 0.89980 0.54610
C70 C 0.2951(3) 0.86629(12) 0.48383(17)
C71 C 0.2817(4) 0.89545(14) 0.4437(2)
H62 H 0.26740 0.88430 0.40910
H63 H 0.32780 0.90970 0.44860
H64 H 0.24120 0.91150 0.44680
C72 C 0.2903(3) 0.83292(14) 0.74732(18)
H65 H 0.31230 0.84170 0.78290
H66 H 0.29260 0.80620 0.74690
H67 H 0.23770 0.84080 0.73450
C73 C 0.3330(2) 0.84816(11) 0.71340(16)
C74 C 0.3126(2) 0.84008(12) 0.66096(17)
H68 H 0.27350 0.82300 0.64680
C75 C 0.3489(2) 0.85680(12) 0.62913(17)
C76 C 0.4065(2) 0.88090(11) 0.65128(17)
H69 H 0.43220 0.89270 0.63010
C77 C 0.4271(2) 0.88793(11) 0.70372(17)
C78 C 0.4888(3) 0.91400(13) 0.72869(18)
H70 H 0.51000 0.92400 0.70240
H71 H 0.52820 0.90120 0.75520
H72 H 0.46870 0.93390 0.74490
C79 C 1.0393(3) 0.93553(16) 0.5000(2)
H73 H 1.02930 0.95030 0.46800
H74 H 1.07770 0.91690 0.49960
C80 C 1.0671(3) 0.95964(14) 0.54694(19)
H75 H 1.11740 0.96950 0.54900
H76 H 1.03220 0.98030 0.54490
C81 C 0.8384(4) 0.53061(18) 0.4257(3)
H77 H 0.82550 0.52680 0.38780
H78 H 0.89340 0.53440 0.43930
C82 C 0.8171(5) 0.49910(17) 0.4498(3)
H79 H 0.85140 0.47860 0.44890
H80 H 0.76540 0.49170 0.43010
C83 C 0.1790(3) 0.81515(15) 0.28391(19)
H81 H 0.16140 0.79980 0.25250
H82 H 0.18220 0.84070 0.27300
C84 C 0.1257(3) 0.81221(15) 0.31618(19)
H83 H 0.07700 0.82370 0.29790
H84 H 0.11660 0.78630 0.32260
C85 C 1.2248(3) 0.8419(2) 1.0967(2)
H85 H 1.21400 0.86680 1.10680
H86 H 1.25420 0.82890 1.12830
C86 C 1.2690(4) 0.8442(2) 1.0595(3)
H87 H 1.31090 0.86160 1.07240
H88 H 1.29070 0.82000 1.05610
C87 C 0.3824(3) 0.93055(15) 0.8883(2)
H89 H 0.40190 0.94750 0.91770
H90 H 0.33910 0.91720 0.89350
C88 C 0.3587(3) 0.95123(13) 0.8383(2)
H91 H 0.31470 0.96680 0.83690
H92 H 0.40020 0.96710 0.83510
C89 C 0.6045(3) 0.50782(14) 0.9643(2)
H93 H 0.54960 0.51160 0.95020
H94 H 0.61630 0.50100 1.00130
C90 C 0.6299(3) 0.47786(13) 0.9343(2)
H95 H 0.68290 0.47120 0.95190
H96 H 0.59840 0.45590 0.93230
N1 N 0.90092(19) 0.86278(9) 0.55756(13)
N2 N 0.7500(2) 0.61134(10) 0.50986(14)
N3 N 0.38106(19) 0.80183(10) 0.41236(14)
N4 N 0.74844(19) 0.74780(9) 0.52629(13)
N5 N 0.61998(19) 0.73234(9) 0.48786(14)
N6 N 0.65751(19) 0.79455(9) 0.49947(13)
N7 N 1.0173(2) 0.80826(10) 0.98234(14)
N8 N 0.4999(2) 0.84602(10) 0.83250(13)
N9 N 0.6845(2) 0.59810(9) 0.89462(14)
N10 N 0.74630(19) 0.78398(9) 0.90238(14)
N11 N 0.66348(19) 0.73385(9) 0.87990(13)
N12 N 0.79448(19) 0.72389(9) 0.91714(14)
N13 N 1.00504(18) 0.88742(9) 0.65327(13)
N14 N 1.08931(19) 0.8450(1) 0.91784(13)
N15 N 0.7602(2) 0.54982(9) 0.57721(14)
N16 N 0.6755(2) 0.54305(9) 0.81502(14)
N17 N 0.28691(19) 0.83105(10) 0.46825(13)
N18 N 0.39035(19) 0.87137(9) 0.73432(13)
N19 N 0.9694(2) 0.91760(11) 0.50263(14)
H133 H 0.95840 0.89800 0.48030
H134 H 0.92990 0.93380 0.49320
N20 N 1.0711(2) 0.93671(11) 0.59320(15)
H135 H 1.06870 0.95140 0.62030
H136 H 1.11620 0.92440 0.60310
N21 N 0.7986(3) 0.56317(12) 0.43656(16)
H137 H 0.75300 0.56550 0.41150
H138 H 0.82650 0.58380 0.43580
N22 N 0.8202(3) 0.50672(12) 0.50379(17)
H139 H 0.86880 0.50460 0.52490
H140 H 0.79080 0.49020 0.51470
N23 N 0.2531(2) 0.80247(11) 0.31657(14)
H141 H 0.29010 0.81230 0.30440
H142 H 0.25560 0.77750 0.31440
N24 N 0.1612(2) 0.83134(11) 0.36628(15)
H143 H 0.13760 0.82480 0.39040
H144 H 0.15670 0.85620 0.36160
N25 N 1.1526(2) 0.82216(12) 1.07302(15)
H145 H 1.11660 0.82990 1.08780
H146 H 1.15940 0.79750 1.07860
N26 N 1.2210(2) 0.85605(13) 1.00922(16)
H147 H 1.24200 0.84940 0.98370
H148 H 1.21640 0.88100 1.00880
N27 N 0.4423(2) 0.90450(11) 0.88519(15)
H149 H 0.44490 0.88550 0.90790
H150 H 0.48810 0.91610 0.89420
N28 N 0.3391(2) 0.92426(10) 0.79584(15)
H151 H 0.33690 0.93540 0.76490
H152 H 0.29280 0.91420 0.79310
N29 N 0.6451(2) 0.54151(11) 0.95872(16)
H153 H 0.69160 0.54170 0.98310
H154 H 0.61870 0.56150 0.96430
N30 N 0.6223(2) 0.49188(10) 0.88178(16)
H155 H 0.57290 0.49050 0.86180
H156 H 0.65070 0.47800 0.86630
loop_
_geom_bond_atom_site_label_1
_geom_bond_atom_site_label_2
_geom_bond_site_symmetry_1
_geom_bond_site_symmetry_2
Pd1 N1 1_555 1_555
Pd1 N13 1_555 1_555
Pd1 N19 1_555 1_555
Pd1 N20 1_555 1_555
Pd2 N2 1_555 1_555
Pd2 N15 1_555 1_555
Pd2 N21 1_555 1_555
Pd2 N22 1_555 1_555
Pd3 N3 1_555 1_555
Pd3 N17 1_555 1_555
Pd3 N23 1_555 1_555
Pd3 N24 1_555 1_555
Pd4 N7 1_555 1_555
Pd4 N14 1_555 1_555
Pd4 N25 1_555 1_555
Pd4 N26 1_555 1_555
Pd5 N9 1_555 1_555
Pd5 N16 1_555 1_555
Pd5 N29 1_555 1_555
Pd5 N30 1_555 1_555
Pd6 N8 1_555 1_555
Pd6 N18 1_555 1_555
Pd6 N27 1_555 1_555
Pd6 N28 1_555 1_555
C1 H1 1_555 1_555
C1 C2 1_555 1_555
C1 N1 1_555 1_555
C2 H2 1_555 1_555
C2 C3 1_555 1_555
C3 C4 1_555 1_555
C3 C16 1_555 1_555
C4 H3 1_555 1_555
C4 C5 1_555 1_555
C5 H4 1_555 1_555
C5 N1 1_555 1_555
C6 H5 1_555 1_555
C6 C7 1_555 1_555
C6 N2 1_555 1_555
C7 H6 1_555 1_555
C7 C8 1_555 1_555
C8 C9 1_555 1_555
C8 C17 1_555 1_555
C9 H7 1_555 1_555
C9 C10 1_555 1_555
C10 H8 1_555 1_555
C10 N2 1_555 1_555
C11 H9 1_555 1_555
C11 C12 1_555 1_555
C11 N3 1_555 1_555
C12 H10 1_555 1_555
C12 C13 1_555 1_555
C13 C14 1_555 1_555
C13 C18 1_555 1_555
C14 H11 1_555 1_555
C14 C15 1_555 1_555
C15 H12 1_555 1_555
C15 N3 1_555 1_555
C16 N4 1_555 1_555
C16 N6 1_555 1_555
C17 N4 1_555 1_555
C17 N5 1_555 1_555
C18 N5 1_555 1_555
C18 N6 1_555 1_555
C19 H13 1_555 1_555
C19 C20 1_555 1_555
C19 N7 1_555 1_555
C20 H14 1_555 1_555
C20 C21 1_555 1_555
C21 C22 1_555 1_555
C21 C34 1_555 1_555
C22 H15 1_555 1_555
C22 C23 1_555 1_555
C23 H16 1_555 1_555
C23 N7 1_555 1_555
C24 H17 1_555 1_555
C24 C25 1_555 1_555
C24 N8 1_555 1_555
C25 H18 1_555 1_555
C25 C26 1_555 1_555
C26 C27 1_555 1_555
C26 C35 1_555 1_555
C27 H19 1_555 1_555
C27 C28 1_555 1_555
C28 H20 1_555 1_555
C28 N8 1_555 1_555
C29 H21 1_555 1_555
C29 C30 1_555 1_555
C29 N9 1_555 1_555
C30 H22 1_555 1_555
C30 C31 1_555 1_555
C31 C32 1_555 1_555
C31 C36 1_555 1_555
C32 H23 1_555 1_555
C32 C33 1_555 1_555
C33 H24 1_555 1_555
C33 N9 1_555 1_555
C34 N10 1_555 1_555
C34 N12 1_555 1_555
C35 N10 1_555 1_555
C35 N11 1_555 1_555
C36 N11 1_555 1_555
C36 N12 1_555 1_555
C37 H25 1_555 1_555
C37 H26 1_555 1_555
C37 H27 1_555 1_555
C37 C38 1_555 1_555
C38 C39 1_555 1_555
C38 N13 1_555 1_555
C39 H28 1_555 1_555
C39 C40 1_555 1_555
C40 C41 1_555 1_555
C40 C47 1_555 1_555
C41 H29 1_555 1_555
C41 C42 1_555 1_555
C42 C43 1_555 1_555
C42 N13 1_555 1_555
C43 H30 1_555 1_555
C43 H31 1_555 1_555
C43 H32 1_555 1_555
C44 H33 1_555 1_555
C44 H34 1_555 1_555
C44 H35 1_555 1_555
C44 C45 1_555 1_555
C45 C46 1_555 1_555
C45 N14 1_555 1_555
C46 H36 1_555 1_555
C46 C47 1_555 1_555
C47 C48 1_555 1_555
C48 H37 1_555 1_555
C48 C49 1_555 1_555
C49 C50 1_555 1_555
C49 N14 1_555 1_555
C50 H38 1_555 1_555
C50 H39 1_555 1_555
C50 H40 1_555 1_555
C51 H41 1_555 1_555
C51 H42 1_555 1_555
C51 H43 1_555 1_555
C51 C52 1_555 1_555
C52 C53 1_555 1_555
C52 N15 1_555 1_555
C53 H44 1_555 1_555
C53 C54 1_555 1_555
C54 C55 1_555 1_555
C54 C61 1_555 1_555
C55 H45 1_555 1_555
C55 C56 1_555 1_555
C56 C57 1_555 1_555
C56 N15 1_555 1_555
C57 H46 1_555 1_555
C57 H47 1_555 1_555
C57 H48 1_555 1_555
C58 H49 1_555 1_555
C58 H50 1_555 1_555
C58 H51 1_555 1_555
C58 C59 1_555 1_555
C59 C60 1_555 1_555
C59 N16 1_555 1_555
C60 H52 1_555 1_555
C60 C61 1_555 1_555
C61 C62 1_555 1_555
C62 H53 1_555 1_555
C62 C63 1_555 1_555
C63 C64 1_555 1_555
C63 N16 1_555 1_555
C64 H54 1_555 1_555
C64 H55 1_555 1_555
C64 H56 1_555 1_555
C65 H57 1_555 1_555
C65 H58 1_555 1_555
C65 H59 1_555 1_555
C65 C66 1_555 1_555
C66 C67 1_555 1_555
C66 N17 1_555 1_555
C67 H60 1_555 1_555
C67 C68 1_555 1_555
C68 C69 1_555 1_555
C68 C75 1_555 1_555
C69 H61 1_555 1_555
C69 C70 1_555 1_555
C70 C71 1_555 1_555
C70 N17 1_555 1_555
C71 H62 1_555 1_555
C71 H63 1_555 1_555
C71 H64 1_555 1_555
C72 H65 1_555 1_555
C72 H66 1_555 1_555
C72 H67 1_555 1_555
C72 C73 1_555 1_555
C73 C74 1_555 1_555
C73 N18 1_555 1_555
C74 H68 1_555 1_555
C74 C75 1_555 1_555
C75 C76 1_555 1_555
C76 H69 1_555 1_555
C76 C77 1_555 1_555
C77 C78 1_555 1_555
C77 N18 1_555 1_555
C78 H70 1_555 1_555
C78 H71 1_555 1_555
C78 H72 1_555 1_555
C79 H73 1_555 1_555
C79 H74 1_555 1_555
C79 C80 1_555 1_555
C79 N19 1_555 1_555
C80 H75 1_555 1_555
C80 H76 1_555 1_555
C80 N20 1_555 1_555
C81 H77 1_555 1_555
C81 H78 1_555 1_555
C81 C82 1_555 1_555
C81 N21 1_555 1_555
C82 H79 1_555 1_555
C82 H80 1_555 1_555
C82 N22 1_555 1_555
C83 H81 1_555 1_555
C83 H82 1_555 1_555
C83 C84 1_555 1_555
C83 N23 1_555 1_555
C84 H83 1_555 1_555
C84 H84 1_555 1_555
C84 N24 1_555 1_555
C85 H85 1_555 1_555
C85 H86 1_555 1_555
C85 C86 1_555 1_555
C85 N25 1_555 1_555
C86 H87 1_555 1_555
C86 H88 1_555 1_555
C86 N26 1_555 1_555
C87 H89 1_555 1_555
C87 H90 1_555 1_555
C87 C88 1_555 1_555
C87 N27 1_555 1_555
C88 H91 1_555 1_555
C88 H92 1_555 1_555
C88 N28 1_555 1_555
C89 H93 1_555 1_555
C89 H94 1_555 1_555
C89 C90 1_555 1_555
C89 N29 1_555 1_555
C90 H95 1_555 1_555
C90 H96 1_555 1_555
C90 N30 1_555 1_555
N19 H133 1_555 1_555
N19 H134 1_555 1_555
N20 H135 1_555 1_555
N20 H136 1_555 1_555
N21 H137 1_555 1_555
N21 H138 1_555 1_555
N22 H139 1_555 1_555
N22 H140 1_555 1_555
N23 H141 1_555 1_555
N23 H142 1_555 1_555
N24 H143 1_555 1_555
N24 H144 1_555 1_555
N25 H145 1_555 1_555
N25 H146 1_555 1_555
N26 H147 1_555 1_555
N26 H148 1_555 1_555
N27 H149 1_555 1_555
N27 H150 1_555 1_555
N28 H151 1_555 1_555
N28 H152 1_555 1_555
N29 H153 1_555 1_555
N29 H154 1_555 1_555
N30 H155 1_555 1_555
N30 H156 1_555 1_555

#END
