
#######################################################################
#
#                 Cambridge Crystallographic Data Centre
#                                CCDC 
#
#######################################################################
#
# If this CIF has been generated from an entry in the Cambridge 
# Structural Database, then it will include bibliographic, chemical, 
# crystal, experimental, refinement or atomic coordinate data resulting 
# from the CCDC's data processing and validation procedures.
#
#######################################################################

data_RAHYUU01
_chemical_formula_moiety         
'C96 H168 Br6 Cr8 N48 Ni6 6+,6(Br1 1-),45(H2 O1)'
_chemical_name_systematic        
"tetracosakis(\m~2~-Cyano-C,N)-hexabromo-octakis(1,4,7-trimethyl-1,4,7-triazacyclononane-N,N',N'')-octa-chromium(iii)-hexa-nickel(ii) hexabromide hydrate"
_symmetry_cell_setting           rhombohedral
_symmetry_space_group_name_H-M   'R -3 m'
_symmetry_Int_Tables_number      166
_space_group_name_Hall           '-R 3 2"'
loop_
_symmetry_equiv_pos_site_id
_symmetry_equiv_pos_as_xyz
1 x,y,z
2 -y,x-y,z
3 -x+y,-x,z
4 y,x,-z
5 1/3+x,2/3+y,2/3+z
6 1/3+y,2/3+x,2/3-z
7 2/3+x,1/3+y,1/3+z
8 2/3-y,1/3+x-y,1/3+z
9 2/3-x+y,1/3-x,1/3+z
10 2/3+y,1/3+x,1/3-z
11 -x,-x+y,-z
12 x-y,-y,-z
13 2/3-x,1/3-x+y,1/3-z
14 2/3+x-y,1/3-y,1/3-z
15 1/3-y,2/3+x-y,2/3+z
16 1/3-x+y,2/3-x,2/3+z
17 1/3-x,2/3-x+y,2/3-z
18 1/3+x-y,2/3-y,2/3-z
19 -x,-y,-z
20 y,-x+y,-z
21 x-y,x,-z
22 -y,-x,z
23 2/3-x,1/3-y,1/3-z
24 2/3-y,1/3-x,1/3+z
25 1/3-x,2/3-y,2/3-z
26 1/3+y,2/3-x+y,2/3-z
27 1/3+x-y,2/3+x,2/3-z
28 1/3-y,2/3-x,2/3+z
29 x,x-y,z
30 -x+y,y,z
31 1/3+x,2/3+x-y,2/3+z
32 1/3-x+y,2/3+y,2/3+z
33 2/3+y,1/3-x+y,1/3-z
34 2/3+x-y,1/3+x,1/3-z
35 2/3+x,1/3+x-y,1/3+z
36 2/3-x+y,1/3+y,1/3+z
_cell_length_a                   19.4604(3)
_cell_length_b                   19.4604(3)
_cell_length_c                   41.7172(1)
_cell_angle_alpha                90
_cell_angle_beta                 90
_cell_angle_gamma                120
_cell_volume                     13682
_cell_formula_units_Z            3
loop_
_atom_site_label
_atom_site_type_symbol
_atom_site_fract_x
_atom_site_fract_y
_atom_site_fract_z
Cr1 Cr 0.00000 0.00000 0.14523
Cr2 Cr 0.33773 0.16887 -0.04783
Ni1 Ni 0.21382 0.10691 0.06143
N1 N 0.09692 0.04846 0.11623
C1 C 0.14272 0.07136 0.09573
N2 N 0.30194 0.15097 -0.00163
C2 C 0.27042 0.13521 0.02253
N3 N 0.25388 0.19981 -0.05648
C3 C 0.20591 0.00728 0.05903
N4 N -0.09367 -0.04683 0.17713
C4 C -0.17173 -0.08587 0.16103
H1 H -0.17653 -0.12857 0.14788
H2 H -0.21328 -0.10664 0.17683
C5 C -0.08908 -0.09352 0.20218
N5 N 0.42798 0.28462 -0.04078
C6 C 0.40423 0.33127 -0.02033
H3 H 0.36223 0.33537 -0.03058
H4 H 0.38608 0.30527 0.00002
H5 H 0.44893 0.38342 -0.01703
N6 N 0.38053 0.19027 -0.09423
C7 C 0.31663 0.15832 -0.11863
H6 H 0.33983 0.16992 -0.13973
H7 H 0.28443 0.18252 -0.11608
C8 C 0.50138 0.29556 -0.03248
C9 C 0.47173 0.32562 -0.06698
C10 C 0.44163 0.26502 -0.10168
Br3 Br 0.34786 0.17393 0.10113
Cr1C Cr -0.00000 -0.00000 -0.14523
Cr2R Cr -0.33773 -0.16887 0.04783
Cr2A Cr -0.16887 0.16886 -0.04783
Cr2U Cr -0.16887 -0.33773 -0.04783
Cr2K Cr 0.16886 -0.16887 0.04783
Cr2C Cr 0.16887 0.33773 0.04783
Ni1C Ni 0.10691 0.21382 -0.06143
Ni1R Ni -0.21382 -0.10691 -0.06143
Ni1B Ni -0.10691 -0.21382 0.06143
Ni1A Ni -0.10691 0.10691 0.06143
Ni1S Ni 0.10691 -0.10691 -0.06143
N1C N 0.04846 0.09692 -0.11623
N1R N -0.09692 -0.04846 -0.11623
N1B N -0.04846 -0.09692 0.11623
N1A N -0.04846 0.04846 0.11623
N1S N 0.04846 -0.04846 -0.11623
C1C C 0.07136 0.14272 -0.09573
C1R C -0.14272 -0.07136 -0.09573
C1B C -0.07136 -0.14272 0.09573
C1A C -0.07136 0.07136 0.09573
C1S C 0.07136 -0.07136 -0.09573
N2R N -0.30194 -0.15097 0.00163
N2A N -0.15097 0.15097 -0.00163
N2B N -0.15097 -0.30194 -0.00163
N2S N 0.15097 -0.15097 0.00163
N2C N 0.15097 0.30194 0.00163
C2R C -0.27042 -0.13521 -0.02253
C2A C -0.13521 0.13521 0.02253
C2B C -0.13521 -0.27042 0.02253
C2S C 0.13521 -0.13521 -0.02253
C2C C 0.13521 0.27042 -0.02253
N3R N -0.25388 -0.19981 0.05648
N3A N -0.19981 0.05407 -0.05648
N3U N -0.19981 -0.25388 -0.05648
N3K N 0.05407 -0.19981 0.05648
N3BA N 0.25388 0.05407 -0.05648
N3B N -0.05407 -0.25388 -0.05648
N3S N 0.19981 -0.05407 0.05648
N3C N 0.19981 0.25388 0.05648
N3CA N -0.05407 0.19981 -0.05648
N3T N 0.05407 0.25388 0.05648
N3J N -0.25388 -0.05407 0.05648
C3T C 0.19863 0.20591 -0.05903
C3B C -0.19863 -0.20591 0.05903
C3R C -0.20591 -0.00728 -0.05903
C3J C -0.20591 -0.19863 -0.05903
C3U C -0.00728 -0.20591 0.05903
C3K C 0.19863 -0.00728 -0.05903
C3S C 0.00728 -0.19863 -0.05903
C3BA C 0.20591 0.19863 0.05903
C3C C 0.00728 0.20591 -0.05903
C3A C -0.00728 0.19863 0.05903
C3CA C -0.19863 0.00728 0.05903
N4T N -0.04684 -0.09367 -0.17713
N4J N 0.09367 0.04684 -0.17713
N4S N -0.04683 0.04684 -0.17713
N4A N 0.04683 -0.04684 0.17713
N4U N 0.04683 0.09367 0.17713
C4T C -0.08586 -0.17173 -0.16103
C4S C -0.08587 0.08586 -0.16103
C4J C 0.17173 0.08586 -0.16103
C4A C 0.08587 -0.08586 0.16103
C4U C 0.08587 0.17173 0.16103
H1T H -0.04796 -0.17653 -0.14788
H1C H -0.12857 -0.17653 -0.14788
H1S H -0.12857 0.04796 -0.14788
H1K H -0.04796 0.12857 -0.14788
H1J H 0.17653 0.04796 -0.14788
H1R H 0.17653 0.12857 -0.14788
H1BA H -0.17653 -0.04796 0.14788
H1A H 0.12857 -0.04796 0.14788
H1CA H 0.04796 -0.12857 0.14788
H1U H 0.12857 0.17653 0.14788
H1B H 0.04796 0.17653 0.14788
H2C H -0.10664 -0.21328 -0.17683
H2S H -0.10664 0.10664 -0.17683
H2R H 0.21328 0.10664 -0.17683
H2A H 0.10664 -0.10664 0.17683
H2B H 0.10664 0.21328 0.17683
C5T C 0.00444 -0.08908 -0.20218
C5J C 0.08908 -0.00444 -0.20218
C5S C -0.09352 -0.00444 -0.20218
C5C C -0.09352 -0.08908 -0.20218
C5K C 0.00444 0.09352 -0.20218
C5R C 0.08908 0.09352 -0.20218
C5CA C -0.00444 -0.09352 0.20218
C5BA C -0.08908 0.00444 0.20218
C5B C -0.00444 0.08908 0.20218
C5A C 0.09352 0.00444 0.20218
C5U C 0.09352 0.08908 0.20218
N5BA N 0.42798 0.14336 -0.04078
N5U N -0.28462 -0.42798 -0.04078
N5B N -0.14336 -0.42798 -0.04078
N5A N -0.28462 0.14336 -0.04078
N5CA N -0.14336 0.28462 -0.04078
N5R N -0.42798 -0.28462 0.04078
N5J N -0.42798 -0.14336 0.04078
N5C N 0.28462 0.42798 0.04078
N5T N 0.14336 0.42798 0.04078
N5K N 0.14336 -0.28462 0.04078
N5S N 0.28462 -0.14336 0.04078
C6BA C 0.40423 0.07296 -0.02033
C6U C -0.33127 -0.40423 -0.02033
C6B C -0.07296 -0.40423 -0.02033
C6A C -0.33127 0.07296 -0.02033
C6CA C -0.07296 0.33127 -0.02033
C6R C -0.40423 -0.33127 0.02033
C6J C -0.40423 -0.07296 0.02033
C6C C 0.33127 0.40423 0.02033
C6T C 0.07296 0.40423 0.02033
C6K C 0.07296 -0.33127 0.02033
C6S C 0.33127 -0.07296 0.02033
H3BA H 0.36223 0.02686 -0.03058
H3U H -0.33537 -0.36223 -0.03058
H3B H -0.02686 -0.36223 -0.03058
H3A H -0.33537 0.02686 -0.03058
H3CA H -0.02686 0.33537 -0.03058
H3R H -0.36223 -0.33537 0.03058
H3J H -0.36223 -0.02686 0.03058
H3C H 0.33537 0.36223 0.03058
H3T H 0.02686 0.36223 0.03058
H3K H 0.02686 -0.33537 0.03058
H3S H 0.33537 -0.02686 0.03058
H4BA H 0.38608 0.08081 0.00002
H4U H -0.30527 -0.38608 0.00002
H4B H -0.08081 -0.38608 0.00002
H4A H -0.30527 0.08081 0.00002
H4CA H -0.08081 0.30527 0.00002
H4R H -0.38608 -0.30527 -0.00002
H4J H -0.38608 -0.08081 -0.00002
H4C H 0.30527 0.38608 -0.00002
H4T H 0.08081 0.38608 -0.00002
H4K H 0.08081 -0.30527 -0.00002
H4S H 0.30527 -0.08081 -0.00002
H5BA H 0.44893 0.06551 -0.01703
H5U H -0.38342 -0.44893 -0.01703
H5B H -0.06551 -0.44893 -0.01703
H5A H -0.38342 0.06551 -0.01703
H5CA H -0.06551 0.38342 -0.01703
H5R H -0.44893 -0.38342 0.01703
H5J H -0.44893 -0.06551 0.01703
H5C H 0.38342 0.44893 0.01703
H5T H 0.06551 0.44893 0.01703
H5K H 0.06551 -0.38342 0.01703
H5S H 0.38342 -0.06551 0.01703
N6U N -0.19027 -0.38053 -0.09423
N6A N -0.19027 0.19026 -0.09423
N6R N -0.38053 -0.19027 0.09423
N6C N 0.19027 0.38053 0.09423
N6K N 0.19026 -0.19027 0.09423
C7U C -0.15832 -0.31663 -0.11863
C7A C -0.15832 0.15831 -0.11863
C7R C -0.31663 -0.15832 0.11863
C7C C 0.15832 0.31663 0.11863
C7K C 0.15831 -0.15832 0.11863
H6U H -0.16992 -0.33983 -0.13973
H6A H -0.16992 0.16991 -0.13973
H6R H -0.33983 -0.16992 0.13973
H6C H 0.16992 0.33983 0.13973
H6K H 0.16991 -0.16992 0.13973
H7BA H 0.28443 0.10191 -0.11608
H7U H -0.18252 -0.28443 -0.11608
H7B H -0.10191 -0.28443 -0.11608
H7A H -0.18252 0.10191 -0.11608
H7CA H -0.10191 0.18252 -0.11608
H7R H -0.28443 -0.18252 0.11608
H7J H -0.28443 -0.10191 0.11608
H7C H 0.18252 0.28443 0.11608
H7T H 0.10191 0.28443 0.11608
H7K H 0.10191 -0.18252 0.11608
H7S H 0.18252 -0.10191 0.11608
C8BA C 0.50138 0.20582 -0.03248
C8U C -0.29556 -0.50138 -0.03248
C8B C -0.20582 -0.50138 -0.03248
C8A C -0.29556 0.20582 -0.03248
C8CA C -0.20582 0.29556 -0.03248
C8R C -0.50138 -0.29556 0.03248
C8J C -0.50138 -0.20582 0.03248
C8C C 0.29556 0.50138 0.03248
C8T C 0.20582 0.50138 0.03248
C8K C 0.20582 -0.29556 0.03248
C8S C 0.29556 -0.20582 0.03248
C9BA C 0.47173 0.14611 -0.06698
C9U C -0.32562 -0.47173 -0.06698
C9B C -0.14611 -0.47173 -0.06698
C9A C -0.32562 0.14611 -0.06698
C9CA C -0.14611 0.32562 -0.06698
C9R C -0.47173 -0.32562 0.06698
C9J C -0.47173 -0.14611 0.06698
C9C C 0.32562 0.47173 0.06698
C9T C 0.14611 0.47173 0.06698
C9K C 0.14611 -0.32562 0.06698
C9S C 0.32562 -0.14611 0.06698
C10BA C 0.44163 0.17661 -0.10168
C10U C -0.26502 -0.44163 -0.10168
C10B C -0.17661 -0.44163 -0.10168
C10A C -0.26502 0.17661 -0.10168
C10CA C -0.17661 0.26502 -0.10168
C10R C -0.44163 -0.26502 0.10168
C10J C -0.44163 -0.17661 0.10168
C10C C 0.26502 0.44163 0.10168
C10T C 0.17661 0.44163 0.10168
C10K C 0.17661 -0.26502 0.10168
C10S C 0.26502 -0.17661 0.10168
Br3S Br 0.17393 -0.17393 -0.10113
Br3C Br 0.17393 0.34786 -0.10113
Br3A Br -0.17393 0.17393 0.10113
Br3B Br -0.17393 -0.34786 0.10113
Br3R Br -0.34786 -0.17393 -0.10113
loop_
_geom_bond_atom_site_label_1
_geom_bond_atom_site_label_2
_geom_bond_site_symmetry_1
_geom_bond_site_symmetry_2
Cr1 N1 1_555 1_555
Cr1 N4 1_555 1_555
Cr1 N1B 1_555 1_555
Cr1 N1A 1_555 1_555
Cr1 N4A 1_555 1_555
Cr1 N4U 1_555 1_555
Cr2 N2 1_555 1_555
Cr2 N3 1_555 1_555
Cr2 N5 1_555 1_555
Cr2 N6 1_555 1_555
Cr2 N3BA 1_555 1_555
Cr2 N5BA 1_555 1_555
Ni1 C1 1_555 1_555
Ni1 C2 1_555 1_555
Ni1 C3 1_555 1_555
Ni1 Br3 1_555 1_555
Ni1 C3BA 1_555 1_555
N1 C1 1_555 1_555
N2 C2 1_555 1_555
N3 C3T 1_555 1_555
C3 N3S 1_555 1_555
N4 C4 1_555 1_555
N4 C5 1_555 1_555
N4 C5BA 1_555 1_555
C4 H1 1_555 1_555
C4 H2 1_555 1_555
C4 H1BA 1_555 1_555
C5 C5CA 1_555 1_555
N5 C6 1_555 1_555
N5 C8 1_555 1_555
N5 C9 1_555 1_555
C6 H3 1_555 1_555
C6 H4 1_555 1_555
C6 H5 1_555 1_555
N6 C7 1_555 1_555
N6 C10 1_555 1_555
N6 C10BA 1_555 1_555
C7 H6 1_555 1_555
C7 H7 1_555 1_555
C7 H7BA 1_555 1_555
C8 C9 1_555 1_555
C8 C8BA 1_555 1_555
C9 C10 1_555 1_555
C10 C10BA 1_555 1_555
Cr1C N1C 1_555 1_555
Cr1C N1R 1_555 1_555
Cr1C N1S 1_555 1_555
Cr1C N4T 1_555 1_555
Cr1C N4J 1_555 1_555
Cr1C N4S 1_555 1_555
Cr2R N2R 1_555 1_555
Cr2R N3R 1_555 1_555
Cr2R N3J 1_555 1_555
Cr2R N5R 1_555 1_555
Cr2R N5J 1_555 1_555
Cr2R N6R 1_555 1_555
Cr2A N2A 1_555 1_555
Cr2A N3A 1_555 1_555
Cr2A N3CA 1_555 1_555
Cr2A N5A 1_555 1_555
Cr2A N5CA 1_555 1_555
Cr2A N6A 1_555 1_555
Cr2U N2B 1_555 1_555
Cr2U N3U 1_555 1_555
Cr2U N3B 1_555 1_555
Cr2U N5U 1_555 1_555
Cr2U N5B 1_555 1_555
Cr2U N6U 1_555 1_555
Cr2K N2S 1_555 1_555
Cr2K N3K 1_555 1_555
Cr2K N3S 1_555 1_555
Cr2K N5K 1_555 1_555
Cr2K N5S 1_555 1_555
Cr2K N6K 1_555 1_555
Cr2C N2C 1_555 1_555
Cr2C N3C 1_555 1_555
Cr2C N3T 1_555 1_555
Cr2C N5C 1_555 1_555
Cr2C N5T 1_555 1_555
Cr2C N6C 1_555 1_555
Ni1C C1C 1_555 1_555
Ni1C C2C 1_555 1_555
Ni1C C3T 1_555 1_555
Ni1C C3C 1_555 1_555
Ni1C Br3C 1_555 1_555
Ni1R C1R 1_555 1_555
Ni1R C2R 1_555 1_555
Ni1R C3R 1_555 1_555
Ni1R C3J 1_555 1_555
Ni1R Br3R 1_555 1_555
Ni1B C1B 1_555 1_555
Ni1B C2B 1_555 1_555
Ni1B C3B 1_555 1_555
Ni1B C3U 1_555 1_555
Ni1B Br3B 1_555 1_555
Ni1A C1A 1_555 1_555
Ni1A C2A 1_555 1_555
Ni1A C3A 1_555 1_555
Ni1A C3CA 1_555 1_555
Ni1A Br3A 1_555 1_555
Ni1S C1S 1_555 1_555
Ni1S C2S 1_555 1_555
Ni1S C3K 1_555 1_555
Ni1S C3S 1_555 1_555
Ni1S Br3S 1_555 1_555
N1C C1C 1_555 1_555
N1R C1R 1_555 1_555
N1B C1B 1_555 1_555
N1A C1A 1_555 1_555
N1S C1S 1_555 1_555
N2R C2R 1_555 1_555
N2A C2A 1_555 1_555
N2B C2B 1_555 1_555
N2S C2S 1_555 1_555
N2C C2C 1_555 1_555
N3R C3B 1_555 1_555
N3A C3R 1_555 1_555
N3U C3J 1_555 1_555
N3K C3U 1_555 1_555
N3BA C3K 1_555 1_555
N3B C3S 1_555 1_555
N3C C3BA 1_555 1_555
N3CA C3C 1_555 1_555
N3T C3A 1_555 1_555
N3J C3CA 1_555 1_555
N4T C4T 1_555 1_555
N4T C5T 1_555 1_555
N4T C5C 1_555 1_555
N4J C4J 1_555 1_555
N4J C5J 1_555 1_555
N4J C5R 1_555 1_555
N4S C4S 1_555 1_555
N4S C5S 1_555 1_555
N4S C5K 1_555 1_555
N4A C4A 1_555 1_555
N4A C5CA 1_555 1_555
N4A C5A 1_555 1_555
N4U C4U 1_555 1_555
N4U C5B 1_555 1_555
N4U C5U 1_555 1_555
C4T H1T 1_555 1_555
C4T H1C 1_555 1_555
C4T H2C 1_555 1_555
C4S H1S 1_555 1_555
C4S H1K 1_555 1_555
C4S H2S 1_555 1_555
C4J H1J 1_555 1_555
C4J H1R 1_555 1_555
C4J H2R 1_555 1_555
C4A H1A 1_555 1_555
C4A H1CA 1_555 1_555
C4A H2A 1_555 1_555
C4U H1U 1_555 1_555
C4U H1B 1_555 1_555
C4U H2B 1_555 1_555
C5T C5J 1_555 1_555
C5S C5C 1_555 1_555
C5K C5R 1_555 1_555
C5BA C5B 1_555 1_555
C5A C5U 1_555 1_555
N5BA C6BA 1_555 1_555
N5BA C8BA 1_555 1_555
N5BA C9BA 1_555 1_555
N5U C6U 1_555 1_555
N5U C8U 1_555 1_555
N5U C9U 1_555 1_555
N5B C6B 1_555 1_555
N5B C8B 1_555 1_555
N5B C9B 1_555 1_555
N5A C6A 1_555 1_555
N5A C8A 1_555 1_555
N5A C9A 1_555 1_555
N5CA C6CA 1_555 1_555
N5CA C8CA 1_555 1_555
N5CA C9CA 1_555 1_555
N5R C6R 1_555 1_555
N5R C8R 1_555 1_555
N5R C9R 1_555 1_555
N5J C6J 1_555 1_555
N5J C8J 1_555 1_555
N5J C9J 1_555 1_555
N5C C6C 1_555 1_555
N5C C8C 1_555 1_555
N5C C9C 1_555 1_555
N5T C6T 1_555 1_555
N5T C8T 1_555 1_555
N5T C9T 1_555 1_555
N5K C6K 1_555 1_555
N5K C8K 1_555 1_555
N5K C9K 1_555 1_555
N5S C6S 1_555 1_555
N5S C8S 1_555 1_555
N5S C9S 1_555 1_555
C6BA H3BA 1_555 1_555
C6BA H4BA 1_555 1_555
C6BA H5BA 1_555 1_555
C6U H3U 1_555 1_555
C6U H4U 1_555 1_555
C6U H5U 1_555 1_555
C6B H3B 1_555 1_555
C6B H4B 1_555 1_555
C6B H5B 1_555 1_555
C6A H3A 1_555 1_555
C6A H4A 1_555 1_555
C6A H5A 1_555 1_555
C6CA H3CA 1_555 1_555
C6CA H4CA 1_555 1_555
C6CA H5CA 1_555 1_555
C6R H3R 1_555 1_555
C6R H4R 1_555 1_555
C6R H5R 1_555 1_555
C6J H3J 1_555 1_555
C6J H4J 1_555 1_555
C6J H5J 1_555 1_555
C6C H3C 1_555 1_555
C6C H4C 1_555 1_555
C6C H5C 1_555 1_555
C6T H3T 1_555 1_555
C6T H4T 1_555 1_555
C6T H5T 1_555 1_555
C6K H3K 1_555 1_555
C6K H4K 1_555 1_555
C6K H5K 1_555 1_555
C6S H3S 1_555 1_555
C6S H4S 1_555 1_555
C6S H5S 1_555 1_555
N6U C7U 1_555 1_555
N6U C10U 1_555 1_555
N6U C10B 1_555 1_555
N6A C7A 1_555 1_555
N6A C10A 1_555 1_555
N6A C10CA 1_555 1_555
N6R C7R 1_555 1_555
N6R C10R 1_555 1_555
N6R C10J 1_555 1_555
N6C C7C 1_555 1_555
N6C C10C 1_555 1_555
N6C C10T 1_555 1_555
N6K C7K 1_555 1_555
N6K C10K 1_555 1_555
N6K C10S 1_555 1_555
C7U H6U 1_555 1_555
C7U H7U 1_555 1_555
C7U H7B 1_555 1_555
C7A H6A 1_555 1_555
C7A H7A 1_555 1_555
C7A H7CA 1_555 1_555
C7R H6R 1_555 1_555
C7R H7R 1_555 1_555
C7R H7J 1_555 1_555
C7C H6C 1_555 1_555
C7C H7C 1_555 1_555
C7C H7T 1_555 1_555
C7K H6K 1_555 1_555
C7K H7K 1_555 1_555
C7K H7S 1_555 1_555
C8BA C9BA 1_555 1_555
C8U C8B 1_555 1_555
C8U C9U 1_555 1_555
C8B C9B 1_555 1_555
C8A C8CA 1_555 1_555
C8A C9A 1_555 1_555
C8CA C9CA 1_555 1_555
C8R C8J 1_555 1_555
C8R C9R 1_555 1_555
C8J C9J 1_555 1_555
C8C C8T 1_555 1_555
C8C C9C 1_555 1_555
C8T C9T 1_555 1_555
C8K C8S 1_555 1_555
C8K C9K 1_555 1_555
C8S C9S 1_555 1_555
C9BA C10BA 1_555 1_555
C9U C10U 1_555 1_555
C9B C10B 1_555 1_555
C9A C10A 1_555 1_555
C9CA C10CA 1_555 1_555
C9R C10R 1_555 1_555
C9J C10J 1_555 1_555
C9C C10C 1_555 1_555
C9T C10T 1_555 1_555
C9K C10K 1_555 1_555
C9S C10S 1_555 1_555
C10U C10B 1_555 1_555
C10A C10CA 1_555 1_555
C10R C10J 1_555 1_555
C10C C10T 1_555 1_555
C10K C10S 1_555 1_555

#END
