
#######################################################################
#
#                 Cambridge Crystallographic Data Centre
#                                CCDC 
#
#######################################################################
#
# If this CIF has been generated from an entry in the Cambridge 
# Structural Database, then it will include bibliographic, chemical, 
# crystal, experimental, refinement or atomic coordinate data resulting 
# from the CCDC's data processing and validation procedures.
#
#######################################################################

data_SISBUU
_chemical_formula_moiety         
'C48 H72 N32 Ni4 O8 8+,8(C1 F3 O3 S1 1-),4(C1 H3 N1 O2),8(H2 O1)'
_chemical_name_systematic        
"tetrakis(\m-N,N'-(pyrimidine-4,6-diylbis{[hydrazin-2-yl-1-ylidene]butane-3,2-diylidene})dihydroxylamine)-tetra-nickel(ii) octakis(trifluoromethanesulfonate) nitromethane solvate octahydrate"
_symmetry_cell_setting           monoclinic
_symmetry_space_group_name_H-M   'P 2/n'
_symmetry_Int_Tables_number      13
_space_group_name_Hall           '-P 2yac'
loop_
_symmetry_equiv_pos_site_id
_symmetry_equiv_pos_as_xyz
1 x,y,z
2 1/2-x,y,1/2-z
3 -x,-y,-z
4 1/2+x,-y,1/2+z
_cell_length_a                   16.9187(7)
_cell_length_b                   16.8536(7)
_cell_length_c                   21.7835(9)
_cell_angle_alpha                90
_cell_angle_beta                 95.233(1)
_cell_angle_gamma                90
_cell_volume                     6185.48
_exptl_crystal_colour            brown
_exptl_crystal_description       block
_cell_formula_units_Z            2
loop_
_atom_site_label
_atom_site_type_symbol
_atom_site_fract_x
_atom_site_fract_y
_atom_site_fract_z
Ni1 Ni -0.01007(3) 0.72008(3) 0.25015(3)
Ni2 Ni 0.25000 0.97776(5) 0.25000
Ni3 Ni 0.25000 0.45787(5) 0.25000
C1 C 0.1205(3) 0.5877(3) 0.25928(19)
H1 H 0.10380 0.57580 0.21750
C2 C -0.0370(3) 0.8112(3) 0.3577(2)
C3 C 0.1053(3) 0.6615(3) 0.3466(2)
C4 C 0.2020(3) 0.5616(3) 0.3466(2)
C5 C 0.3531(3) 0.4177(3) 0.3571(2)
C6 C -0.0266(4) 0.8462(3) 0.4211(2)
H2 H -0.06140 0.81870 0.44770
H3 H -0.04030 0.90270 0.41910
H4 H 0.02870 0.84010 0.43800
C7 C 0.3796(3) 0.3641(3) 0.3091(2)
C8 C -0.1000(3) 0.8393(3) 0.3107(2)
C9 C 0.1660(3) 0.6204(3) 0.3790(2)
H5 H 0.18220 0.63160 0.42100
C10 C 0.3904(4) 0.4174(4) 0.4218(2)
H6 H 0.35650 0.44650 0.44820
H7 H 0.44260 0.44280 0.42340
H8 H 0.39650 0.36250 0.43640
C11 C 0.4465(3) 0.3071(3) 0.3234(3)
H9 H 0.43670 0.27580 0.35980
H10 H 0.49630 0.33660 0.33150
H11 H 0.45050 0.27160 0.28820
C12 C -0.1586(3) 0.8998(4) 0.3268(3)
H12 H -0.19790 0.90820 0.29150
H13 H -0.13110 0.94980 0.33740
H14 H -0.18540 0.88120 0.36220
N1 N 0.3400(2) 0.3708(2) 0.25611(18)
N2 N -0.0983(2) 0.8078(3) 0.25706(19)
N3 N 0.2955(2) 0.4632(2) 0.33739(17)
N4 N 0.2626(2) 0.5172(3) 0.37390(18)
H15 H 0.27960 0.52310 0.41300
N5 N 0.0670(2) 0.7216(2) 0.37387(18)
H16 H 0.08080 0.73710 0.41190
N6 N 0.0060(2) 0.7557(2) 0.33804(18)
N7 N 0.1795(2) 0.5452(2) 0.28651(17)
N8 N 0.0823(2) 0.6463(2) 0.28600(17)
O1 O 0.3661(2) 0.3213(2) 0.21198(17)
H17 H 0.33650 0.32610 0.17910
O2 O -0.1552(2) 0.8378(3) 0.21394(19)
H18 H -0.15770 0.80940 0.18210
C13 C 0.1174(3) 0.8495(3) 0.2399(2)
H19 H 0.11250 0.85920 0.28240
C14 C 0.1774(3) 0.8786(3) 0.1514(2)
C15 C 0.0759(3) 0.7828(3) 0.1509(2)
C16 C -0.0687(3) 0.6328(3) 0.1426(2)
C17 C 0.1296(3) 0.8239(3) 0.1182(2)
H20 H 0.13330 0.81510 0.07550
C18 C -0.0845(4) 0.6072(4) 0.0769(2)
H21 H -0.08610 0.65380 0.05000
H22 H -0.13560 0.57950 0.07140
H23 H -0.04220 0.57140 0.06620
C19 C -0.1124(3) 0.5979(3) 0.1924(2)
C20 C 0.3645(3) 1.0740(3) 0.1927(2)
C21 C -0.1702(3) 0.5315(4) 0.1801(3)
H24 H -0.16870 0.49690 0.21630
H25 H -0.15600 0.50090 0.14450
H26 H -0.22380 0.55330 0.17140
C22 C 0.4231(4) 1.1348(3) 0.1785(3)
H27 H 0.42500 1.17660 0.20980
H28 H 0.40750 1.15780 0.13780
H29 H 0.47560 1.11020 0.17840
N9 N -0.0946(3) 0.6289(3) 0.24607(19)
N10 N 0.3374(3) 1.0648(3) 0.2452(2)
N11 N -0.0195(2) 0.6869(2) 0.16165(18)
N12 N 0.1718(2) 0.8920(2) 0.21262(17)
N13 N 0.0268(3) 0.7268(3) 0.12369(19)
H30 H 0.02490 0.71680 0.08390
N14 N 0.0703(2) 0.7954(2) 0.21227(17)
N15 N 0.2344(2) 0.9201(2) 0.12453(18)
H31 H 0.24410 0.91280 0.08590
O3 O -0.1352(3) 0.5957(3) 0.29115(18)
H32 H -0.12380 0.61980 0.32460
O4 O 0.3705(3) 1.1171(3) 0.2896(2)
H33 H 0.34900 1.11060 0.32250
N16 N 0.2752(2) 0.9740(2) 0.16214(18)
C23 C 0.3301(3) 1.0182(3) 0.1436(2)
C24 C 0.3600(3) 1.0163(3) 0.0815(2)
H34 H 0.35430 0.96260 0.06440
H35 H 0.41620 1.03160 0.08490
H36 H 0.32940 1.05360 0.05420
Ni1A Ni 0.51007(3) 0.72008(3) 0.24985(3)
C1A C 0.3795(3) 0.5877(3) 0.24072(19)
H1A H 0.39620 0.57580 0.28250
C2A C 0.5370(3) 0.8112(3) 0.1423(2)
C3A C 0.3947(3) 0.6615(3) 0.1534(2)
C4A C 0.2980(3) 0.5616(3) 0.1534(2)
C5A C 0.1469(3) 0.4177(3) 0.1429(2)
C6A C 0.5266(4) 0.8462(3) 0.0789(2)
H2A H 0.56140 0.81870 0.05230
H3A H 0.54030 0.90270 0.08090
H4A H 0.47130 0.84010 0.06200
C7A C 0.1204(3) 0.3641(3) 0.1909(2)
C8A C 0.6000(3) 0.8393(3) 0.1893(2)
C9A C 0.3340(3) 0.6204(3) 0.1210(2)
H5A H 0.31780 0.63160 0.07900
C10A C 0.1096(4) 0.4174(4) 0.0782(2)
H6A H 0.14350 0.44650 0.05180
H7A H 0.05740 0.44280 0.07660
H8A H 0.10350 0.36250 0.06360
C11A C 0.0535(3) 0.3071(3) 0.1766(3)
H9A H 0.06330 0.27580 0.14020
H10A H 0.00370 0.33660 0.16850
H11A H 0.04950 0.27160 0.21180
C12A C 0.6586(3) 0.8998(4) 0.1732(3)
H12A H 0.69790 0.90820 0.20850
H13A H 0.63110 0.94980 0.16260
H14A H 0.68540 0.88120 0.13780
N1A N 0.1600(2) 0.3708(2) 0.24389(18)
N2A N 0.5983(2) 0.8078(3) 0.24294(19)
N3A N 0.2045(2) 0.4632(2) 0.16261(17)
N4A N 0.2374(2) 0.5172(3) 0.12610(18)
H15A H 0.22040 0.52310 0.08700
N5A N 0.4330(2) 0.7216(2) 0.12613(18)
H16A H 0.41920 0.73710 0.08810
N6A N 0.4940(2) 0.7557(2) 0.16196(18)
N7A N 0.3205(2) 0.5452(2) 0.21349(17)
N8A N 0.4177(2) 0.6463(2) 0.21400(17)
O1A O 0.1339(2) 0.3213(2) 0.28802(17)
H17A H 0.16350 0.32610 0.32090
O2A O 0.6552(2) 0.8378(3) 0.28606(19)
H18A H 0.65770 0.80940 0.31790
C13A C 0.3826(3) 0.8495(3) 0.2601(2)
H19A H 0.38750 0.85920 0.21760
C14A C 0.3226(3) 0.8786(3) 0.3486(2)
C15A C 0.4241(3) 0.7828(3) 0.3491(2)
C16A C 0.5687(3) 0.6328(3) 0.3574(2)
C17A C 0.3704(3) 0.8239(3) 0.3818(2)
H20A H 0.36670 0.81510 0.42450
C18A C 0.5845(4) 0.6072(4) 0.4231(2)
H21A H 0.58610 0.65380 0.45000
H22A H 0.63560 0.57950 0.42860
H23A H 0.54220 0.57140 0.43380
C19A C 0.6124(3) 0.5979(3) 0.3076(2)
C20A C 0.1355(3) 1.0740(3) 0.3073(2)
C21A C 0.6702(3) 0.5315(4) 0.3199(3)
H24A H 0.66870 0.49690 0.28370
H25A H 0.65600 0.50090 0.35550
H26A H 0.72380 0.55330 0.32860
C22A C 0.0769(4) 1.1348(3) 0.3215(3)
H27A H 0.07500 1.17660 0.29020
H28A H 0.09250 1.15780 0.36220
H29A H 0.02440 1.11020 0.32160
N9A N 0.5946(3) 0.6289(3) 0.25393(19)
N10A N 0.1626(3) 1.0648(3) 0.2548(2)
N11A N 0.5195(2) 0.6869(2) 0.33835(18)
N12A N 0.3282(2) 0.8920(2) 0.28738(17)
N13A N 0.4732(3) 0.7268(3) 0.37631(19)
H30A H 0.47510 0.71680 0.41610
N14A N 0.4297(2) 0.7954(2) 0.28773(17)
N15A N 0.2656(2) 0.9201(2) 0.37547(18)
H31A H 0.25590 0.91280 0.41410
O3A O 0.6352(3) 0.5957(3) 0.20885(18)
H32A H 0.62380 0.61980 0.17540
O4A O 0.1295(3) 1.1171(3) 0.2104(2)
H33A H 0.15100 1.11060 0.17750
N16A N 0.2248(2) 0.9740(2) 0.33786(18)
C23A C 0.1699(3) 1.0182(3) 0.3564(2)
C24A C 0.1400(3) 1.0163(3) 0.4185(2)
H34A H 0.14570 0.96260 0.43560
H35A H 0.08380 1.03160 0.41510
H36A H 0.17060 1.05360 0.44580
loop_
_geom_bond_atom_site_label_1
_geom_bond_atom_site_label_2
_geom_bond_site_symmetry_1
_geom_bond_site_symmetry_2
Ni1 N2 1_555 1_555
Ni1 N6 1_555 1_555
Ni1 N8 1_555 1_555
Ni1 N9 1_555 1_555
Ni1 N11 1_555 1_555
Ni1 N14 1_555 1_555
Ni2 N10 1_555 1_555
Ni2 N12 1_555 1_555
Ni2 N16 1_555 1_555
Ni2 N10A 1_555 1_555
Ni2 N12A 1_555 1_555
Ni2 N16A 1_555 1_555
Ni3 N1 1_555 1_555
Ni3 N3 1_555 1_555
Ni3 N7 1_555 1_555
Ni3 N1A 1_555 1_555
Ni3 N3A 1_555 1_555
Ni3 N7A 1_555 1_555
C1 H1 1_555 1_555
C1 N7 1_555 1_555
C1 N8 1_555 1_555
C2 C6 1_555 1_555
C2 C8 1_555 1_555
C2 N6 1_555 1_555
C3 C9 1_555 1_555
C3 N5 1_555 1_555
C3 N8 1_555 1_555
C4 C9 1_555 1_555
C4 N4 1_555 1_555
C4 N7 1_555 1_555
C5 C7 1_555 1_555
C5 C10 1_555 1_555
C5 N3 1_555 1_555
C6 H2 1_555 1_555
C6 H3 1_555 1_555
C6 H4 1_555 1_555
C7 C11 1_555 1_555
C7 N1 1_555 1_555
C8 C12 1_555 1_555
C8 N2 1_555 1_555
C9 H5 1_555 1_555
C10 H6 1_555 1_555
C10 H7 1_555 1_555
C10 H8 1_555 1_555
C11 H9 1_555 1_555
C11 H10 1_555 1_555
C11 H11 1_555 1_555
C12 H12 1_555 1_555
C12 H13 1_555 1_555
C12 H14 1_555 1_555
N1 O1 1_555 1_555
N2 O2 1_555 1_555
N3 N4 1_555 1_555
N4 H15 1_555 1_555
N5 H16 1_555 1_555
N5 N6 1_555 1_555
O1 H17 1_555 1_555
O2 H18 1_555 1_555
C13 H19 1_555 1_555
C13 N12 1_555 1_555
C13 N14 1_555 1_555
C14 C17 1_555 1_555
C14 N12 1_555 1_555
C14 N15 1_555 1_555
C15 C17 1_555 1_555
C15 N13 1_555 1_555
C15 N14 1_555 1_555
C16 C18 1_555 1_555
C16 C19 1_555 1_555
C16 N11 1_555 1_555
C17 H20 1_555 1_555
C18 H21 1_555 1_555
C18 H22 1_555 1_555
C18 H23 1_555 1_555
C19 C21 1_555 1_555
C19 N9 1_555 1_555
C20 C22 1_555 1_555
C20 N10 1_555 1_555
C20 C23 1_555 1_555
C21 H24 1_555 1_555
C21 H25 1_555 1_555
C21 H26 1_555 1_555
C22 H27 1_555 1_555
C22 H28 1_555 1_555
C22 H29 1_555 1_555
N9 O3 1_555 1_555
N10 O4 1_555 1_555
N11 N13 1_555 1_555
N13 H30 1_555 1_555
N15 H31 1_555 1_555
N15 N16 1_555 1_555
O3 H32 1_555 1_555
O4 H33 1_555 1_555
N16 C23 1_555 1_555
C23 C24 1_555 1_555
C24 H34 1_555 1_555
C24 H35 1_555 1_555
C24 H36 1_555 1_555
Ni1A N2A 1_555 1_555
Ni1A N6A 1_555 1_555
Ni1A N8A 1_555 1_555
Ni1A N9A 1_555 1_555
Ni1A N11A 1_555 1_555
Ni1A N14A 1_555 1_555
C1A H1A 1_555 1_555
C1A N7A 1_555 1_555
C1A N8A 1_555 1_555
C2A C6A 1_555 1_555
C2A C8A 1_555 1_555
C2A N6A 1_555 1_555
C3A C9A 1_555 1_555
C3A N5A 1_555 1_555
C3A N8A 1_555 1_555
C4A C9A 1_555 1_555
C4A N4A 1_555 1_555
C4A N7A 1_555 1_555
C5A C7A 1_555 1_555
C5A C10A 1_555 1_555
C5A N3A 1_555 1_555
C6A H2A 1_555 1_555
C6A H3A 1_555 1_555
C6A H4A 1_555 1_555
C7A C11A 1_555 1_555
C7A N1A 1_555 1_555
C8A C12A 1_555 1_555
C8A N2A 1_555 1_555
C9A H5A 1_555 1_555
C10A H6A 1_555 1_555
C10A H7A 1_555 1_555
C10A H8A 1_555 1_555
C11A H9A 1_555 1_555
C11A H10A 1_555 1_555
C11A H11A 1_555 1_555
C12A H12A 1_555 1_555
C12A H13A 1_555 1_555
C12A H14A 1_555 1_555
N1A O1A 1_555 1_555
N2A O2A 1_555 1_555
N3A N4A 1_555 1_555
N4A H15A 1_555 1_555
N5A H16A 1_555 1_555
N5A N6A 1_555 1_555
O1A H17A 1_555 1_555
O2A H18A 1_555 1_555
C13A H19A 1_555 1_555
C13A N12A 1_555 1_555
C13A N14A 1_555 1_555
C14A C17A 1_555 1_555
C14A N12A 1_555 1_555
C14A N15A 1_555 1_555
C15A C17A 1_555 1_555
C15A N13A 1_555 1_555
C15A N14A 1_555 1_555
C16A C18A 1_555 1_555
C16A C19A 1_555 1_555
C16A N11A 1_555 1_555
C17A H20A 1_555 1_555
C18A H21A 1_555 1_555
C18A H22A 1_555 1_555
C18A H23A 1_555 1_555
C19A C21A 1_555 1_555
C19A N9A 1_555 1_555
C20A C22A 1_555 1_555
C20A N10A 1_555 1_555
C20A C23A 1_555 1_555
C21A H24A 1_555 1_555
C21A H25A 1_555 1_555
C21A H26A 1_555 1_555
C22A H27A 1_555 1_555
C22A H28A 1_555 1_555
C22A H29A 1_555 1_555
N9A O3A 1_555 1_555
N10A O4A 1_555 1_555
N11A N13A 1_555 1_555
N13A H30A 1_555 1_555
N15A H31A 1_555 1_555
N15A N16A 1_555 1_555
O3A H32A 1_555 1_555
O4A H33A 1_555 1_555
N16A C23A 1_555 1_555
C23A C24A 1_555 1_555
C24A H34A 1_555 1_555
C24A H35A 1_555 1_555
C24A H36A 1_555 1_555

#END
