
#######################################################################
#
#                 Cambridge Crystallographic Data Centre
#                                CCDC 
#
#######################################################################
#
# If this CIF has been generated from an entry in the Cambridge 
# Structural Database, then it will include bibliographic, chemical, 
# crystal, experimental, refinement or atomic coordinate data resulting 
# from the CCDC's data processing and validation procedures.
#
#######################################################################

data_VIBPIH
_chemical_formula_moiety         
'C104 H80 Mn4 N24 8+,2.5(C2 H3 N1),2(C1 H4 O1),8(Cl1 O4 1-)'
_chemical_name_systematic        
"tetrakis(\m~2~-6,6'-Pyrazine-2,3-diylbis(6'-methyl-2,2'-bipyridine))-tetra-manganese(ii) octaperchlorate acetonitrile methanol solvate"
_symmetry_cell_setting           orthorhombic
_symmetry_space_group_name_H-M   'A b a 2'
_symmetry_Int_Tables_number      41
_space_group_name_Hall           'A 2 -2ab'
loop_
_symmetry_equiv_pos_site_id
_symmetry_equiv_pos_as_xyz
1 x,y,z
2 -x,-y,z
3 1/2-x,1/2+y,z
4 1/2+x,1/2-y,z
5 x,1/2+y,1/2+z
6 -x,1/2-y,1/2+z
7 1/2-x,y,1/2+z
8 1/2+x,-y,1/2+z
_cell_length_a                   18.5171(7)
_cell_length_b                   30.0858(11)
_cell_length_c                   23.2151(10)
_cell_angle_alpha                90
_cell_angle_beta                 90
_cell_angle_gamma                90
_cell_volume                     12933.2
_exptl_crystal_colour            yellow
_exptl_crystal_description       block
_cell_formula_units_Z            4
loop_
_atom_site_label
_atom_site_type_symbol
_atom_site_fract_x
_atom_site_fract_y
_atom_site_fract_z
Mn1 Mn 0.23032(8) -0.01717(5) 0.4501(4)
Mn2 Mn 0.47007(8) 0.17521(5) 0.4847(4)
N1 N 0.1461(5) 0.0162(3) 0.5030(6)
C1 C 0.1110(6) 0.0550(5) 0.4857(8)
C2 C 0.1263(8) 0.0712(4) 0.4277(8)
H1 H 0.15880 0.05110 0.40880
H2 H 0.14800 0.10010 0.43000
H3 H 0.08210 0.07300 0.40620
C3 C 0.0643(7) 0.0757(5) 0.5242(9)
H4 H 0.03910 0.10100 0.51300
C4 C 0.0552(7) 0.0589(5) 0.5788(10)
H5 H 0.02560 0.07330 0.60530
C5 C 0.0894(6) 0.0218(5) 0.5930(8)
H6 H 0.08170 0.00970 0.62940
C6 C 0.1355(5) 0.0006(4) 0.5563(7)
C7 C 0.1782(5) -0.0403(4) 0.5703(6)
N2 N 0.2339(4) -0.0482(3) 0.5362(6)
C8 C 0.2765(5) -0.0833(4) 0.5469(6)
C9 C 0.2638(5) -0.1126(4) 0.5908(6)
H7 H 0.29400 -0.13680 0.59780
C10 C 0.2066(6) -0.1047(4) 0.6225(6)
H8 H 0.19430 -0.12600 0.64990
C11 C 0.1623(6) -0.0668(4) 0.6188(7)
H9 H 0.12640 -0.06000 0.64550
C12 C 0.3371(5) -0.0893(3) 0.5006(6)
N3 N 0.3215(4) -0.0705(3) 0.4503(6)
C13 C 0.3657(5) -0.0799(3) 0.4077(6)
H10 H 0.35810 -0.06640 0.37210
C14 C 0.4232(6) -0.1090(3) 0.4137(6)
H11 H 0.44960 -0.11770 0.38150
N4 N 0.4406(4) -0.1245(3) 0.4654(5)
C15 C 0.4003(5) -0.1119(3) 0.5113(6)
C16 C 0.4347(5) -0.1200(4) 0.5682(6)
N5 N 0.4826(4) -0.1533(3) 0.5671(5)
C17 C 0.5218(6) -0.1644(4) 0.6145(7)
C18 C 0.5129(7) -0.1399(4) 0.6643(6)
H12 H 0.53810 -0.14750 0.69760
C19 C 0.4670(6) -0.1045(5) 0.6643(6)
H13 H 0.46180 -0.08710 0.69710
C20 C 0.4287(7) -0.0947(4) 0.6159(7)
H14 H 0.39790 -0.07030 0.61580
C21 C 0.5722(6) -0.2014(4) 0.6090(6)
N6 N 0.5885(5) -0.2136(3) 0.5537(6)
C22 C 0.6384(7) -0.2456(4) 0.5468(8)
C23 C 0.6593(8) -0.2555(5) 0.4842(8)
H15 H 0.62920 -0.23850 0.45880
H16 H 0.65280 -0.28660 0.47660
H17 H 0.70890 -0.24760 0.47820
C24 C 0.6731(9) -0.2668(6) 0.594(1)
H18 H 0.70890 -0.28800 0.58790
C25 C 0.6532(10) -0.2557(7) 0.6464(9)
H19 H 0.67300 -0.27020 0.67800
C26 C 0.6007(8) -0.2210(6) 0.6549(8)
H20 H 0.58700 -0.21250 0.69190
N7 N 0.1783(6) -0.0580(3) 0.3806(6)
C27 C 0.1315(7) -0.0918(5) 0.3937(8)
C28 C 0.1083(7) -0.0984(6) 0.4528(10)
H21 H 0.13100 -0.07670 0.47710
H22 H 0.12180 -0.12770 0.46520
H23 H 0.05680 -0.09520 0.45510
C29 C 0.1098(9) -0.1198(5) 0.3452(12)
H24 H 0.07790 -0.14310 0.35190
C30 C 0.1344(10) -0.1130(6) 0.2909(9)
H25 H 0.11930 -0.13110 0.26090
C31 C 0.1841(10) -0.0775(4) 0.2807(7)
H26 H 0.20170 -0.07210 0.24380
C32 C 0.2054(8) -0.0514(5) 0.3261(7)
C33 C 0.2580(7) -0.0129(4) 0.3215(7)
N8 N 0.2676(5) 0.0106(3) 0.3670(6)
C34 C 0.3163(6) 0.0431(4) 0.3688(7)
C35 C 0.3568(8) 0.0524(5) 0.3200(7)
H27 H 0.39030 0.07550 0.32080
C36 C 0.3485(7) 0.0288(5) 0.2718(8)
H28 H 0.37660 0.03460 0.23940
C37 C 0.2946(9) -0.0062(5) 0.2711(7)
H29 H 0.28550 -0.02310 0.23830
C38 C 0.3273(5) 0.0648(4) 0.4245(6)
N9 N 0.3079(4) 0.0404(3) 0.4693(5)
C39 C 0.3286(6) 0.0535(4) 0.5220(6)
H30 H 0.31360 0.03760 0.55420
C40 C 0.3710(6) 0.0895(4) 0.5284(6)
H31 H 0.39090 0.09540 0.56440
N10 N 0.3853(4) 0.1166(3) 0.4858(6)
C41 C 0.3603(5) 0.1076(4) 0.4328(6)
C42 C 0.3640(6) 0.1426(3) 0.3904(6)
N11 N 0.4205(4) 0.1717(3) 0.3985(5)
C43 C 0.4274(6) 0.2049(4) 0.3622(6)
C44 C 0.3850(6) 0.2134(4) 0.3180(7)
H32 H 0.39170 0.23830 0.29490
C45 C 0.3284(8) 0.1825(4) 0.3077(7)
H33 H 0.30000 0.18520 0.27490
C46 C 0.3153(6) 0.1485(4) 0.3461(6)
H34 H 0.27510 0.13010 0.34230
C47 C 0.4908(6) 0.2343(4) 0.3778(7)
N12 N 0.5203(5) 0.2281(3) 0.4293(6)
C48 C 0.5769(6) 0.2542(4) 0.4460(7)
C49 C 0.6107(7) 0.2420(4) 0.5055(7)
H35 H 0.58440 0.21770 0.52220
H36 H 0.60810 0.26730 0.53070
H37 H 0.66020 0.23360 0.50040
C50 C 0.6020(7) 0.2856(5) 0.4093(8)
H38 H 0.64110 0.30280 0.42110
C51 C 0.5736(8) 0.2937(5) 0.3563(8)
H39 H 0.59230 0.31570 0.33250
C52 C 0.5164(6) 0.2680(4) 0.3395(8)
H40 H 0.49460 0.27240 0.30390
Mn1A Mn 0.76968(8) 0.01717(5) 0.4501(4)
Mn2A Mn 0.52993(8) -0.17521(5) 0.4847(4)
N1A N 0.8539(5) -0.0162(3) 0.5030(6)
C1A C 0.8890(6) -0.0550(5) 0.4857(8)
C2A C 0.8737(8) -0.0712(4) 0.4277(8)
H1A H 0.84120 -0.05110 0.40880
H2A H 0.85200 -0.10010 0.43000
H3A H 0.91790 -0.07300 0.40620
C3A C 0.9357(7) -0.0757(5) 0.5242(9)
H4A H 0.96090 -0.10100 0.51300
C4A C 0.9448(7) -0.0589(5) 0.5788(10)
H5A H 0.97440 -0.07330 0.60530
C5A C 0.9106(6) -0.0218(5) 0.5930(8)
H6A H 0.91830 -0.00970 0.62940
C6A C 0.8645(5) -0.0006(4) 0.5563(7)
C7A C 0.8218(5) 0.0403(4) 0.5703(6)
N2A N 0.7661(4) 0.0482(3) 0.5362(6)
C8A C 0.7235(5) 0.0833(4) 0.5469(6)
C9A C 0.7362(5) 0.1126(4) 0.5908(6)
H7A H 0.70600 0.13680 0.59780
C10A C 0.7934(6) 0.1047(4) 0.6225(6)
H8A H 0.80570 0.12600 0.64990
C11A C 0.8377(6) 0.0668(4) 0.6188(7)
H9A H 0.87360 0.06000 0.64550
C12A C 0.6629(5) 0.0893(3) 0.5006(6)
N3A N 0.6785(4) 0.0705(3) 0.4503(6)
C13A C 0.6343(5) 0.0799(3) 0.4077(6)
H10A H 0.64190 0.06640 0.37210
C14A C 0.5768(6) 0.1090(3) 0.4137(6)
H11A H 0.55040 0.11770 0.38150
N4A N 0.5594(4) 0.1245(3) 0.4654(5)
C15A C 0.5997(5) 0.1119(3) 0.5113(6)
C16A C 0.5653(5) 0.1200(4) 0.5682(6)
N5A N 0.5174(4) 0.1533(3) 0.5671(5)
C17A C 0.4782(6) 0.1644(4) 0.6145(7)
C18A C 0.4871(7) 0.1399(4) 0.6643(6)
H12A H 0.46190 0.14750 0.69760
C19A C 0.5330(6) 0.1045(5) 0.6643(6)
H13A H 0.53820 0.08710 0.69710
C20A C 0.5713(7) 0.0947(4) 0.6159(7)
H14A H 0.60210 0.07030 0.61580
C21A C 0.4278(6) 0.2014(4) 0.6090(6)
N6A N 0.4115(5) 0.2136(3) 0.5537(6)
C22A C 0.3616(7) 0.2456(4) 0.5468(8)
C23A C 0.3407(8) 0.2555(5) 0.4842(8)
H15A H 0.37080 0.23850 0.45880
H16A H 0.34720 0.28660 0.47660
H17A H 0.29110 0.24760 0.47820
C24A C 0.3269(9) 0.2668(6) 0.594(1)
H18A H 0.29110 0.28800 0.58790
C25A C 0.3468(10) 0.2557(7) 0.6464(9)
H19A H 0.32700 0.27020 0.67800
C26A C 0.3993(8) 0.2210(6) 0.6549(8)
H20A H 0.41300 0.21250 0.69190
N7A N 0.8217(6) 0.0580(3) 0.3806(6)
C27A C 0.8685(7) 0.0918(5) 0.3937(8)
C28A C 0.8917(7) 0.0984(6) 0.4528(10)
H21A H 0.86900 0.07670 0.47710
H22A H 0.87820 0.12770 0.46520
H23A H 0.94320 0.09520 0.45510
C29A C 0.8902(9) 0.1198(5) 0.3452(12)
H24A H 0.92210 0.14310 0.35190
C30A C 0.8656(10) 0.1130(6) 0.2909(9)
H25A H 0.88070 0.13110 0.26090
C31A C 0.8159(10) 0.0775(4) 0.2807(7)
H26A H 0.79830 0.07210 0.24380
C32A C 0.7946(8) 0.0514(5) 0.3261(7)
C33A C 0.7420(7) 0.0129(4) 0.3215(7)
N8A N 0.7324(5) -0.0106(3) 0.3670(6)
C34A C 0.6837(6) -0.0431(4) 0.3688(7)
C35A C 0.6432(8) -0.0524(5) 0.3200(7)
H27A H 0.60970 -0.07550 0.32080
C36A C 0.6515(7) -0.0288(5) 0.2718(8)
H28A H 0.62340 -0.03460 0.23940
C37A C 0.7054(9) 0.0062(5) 0.2711(7)
H29A H 0.71450 0.02310 0.23830
C38A C 0.6727(5) -0.0648(4) 0.4245(6)
N9A N 0.6921(4) -0.0404(3) 0.4693(5)
C39A C 0.6714(6) -0.0535(4) 0.5220(6)
H30A H 0.68640 -0.03760 0.55420
C40A C 0.6290(6) -0.0895(4) 0.5284(6)
H31A H 0.60910 -0.09540 0.56440
N10A N 0.6147(4) -0.1166(3) 0.4858(6)
C41A C 0.6397(5) -0.1076(4) 0.4328(6)
C42A C 0.6360(6) -0.1426(3) 0.3904(6)
N11A N 0.5795(4) -0.1717(3) 0.3985(5)
C43A C 0.5726(6) -0.2049(4) 0.3622(6)
C44A C 0.6150(6) -0.2134(4) 0.3180(7)
H32A H 0.60830 -0.23830 0.29490
C45A C 0.6716(8) -0.1825(4) 0.3077(7)
H33A H 0.70000 -0.18520 0.27490
C46A C 0.6847(6) -0.1485(4) 0.3461(6)
H34A H 0.72490 -0.13010 0.34230
C47A C 0.5092(6) -0.2343(4) 0.3778(7)
N12A N 0.4797(5) -0.2281(3) 0.4293(6)
C48A C 0.4231(6) -0.2542(4) 0.4460(7)
C49A C 0.3893(7) -0.2420(4) 0.5055(7)
H35A H 0.41560 -0.21770 0.52220
H36A H 0.39190 -0.26730 0.53070
H37A H 0.33980 -0.23360 0.50040
C50A C 0.3980(7) -0.2856(5) 0.4093(8)
H38A H 0.35890 -0.30280 0.42110
C51A C 0.4264(8) -0.2937(5) 0.3563(8)
H39A H 0.40770 -0.31570 0.33250
C52A C 0.4836(6) -0.2680(4) 0.3395(8)
H40A H 0.50540 -0.27240 0.30390
loop_
_geom_bond_atom_site_label_1
_geom_bond_atom_site_label_2
_geom_bond_site_symmetry_1
_geom_bond_site_symmetry_2
Mn1 N1 1_555 1_555
Mn1 N2 1_555 1_555
Mn1 N3 1_555 1_555
Mn1 N7 1_555 1_555
Mn1 N8 1_555 1_555
Mn1 N9 1_555 1_555
Mn2 N10 1_555 1_555
Mn2 N11 1_555 1_555
Mn2 N12 1_555 1_555
Mn2 N4A 1_555 1_555
Mn2 N5A 1_555 1_555
Mn2 N6A 1_555 1_555
N1 C1 1_555 1_555
N1 C6 1_555 1_555
C1 C2 1_555 1_555
C1 C3 1_555 1_555
C2 H1 1_555 1_555
C2 H2 1_555 1_555
C2 H3 1_555 1_555
C3 H4 1_555 1_555
C3 C4 1_555 1_555
C4 H5 1_555 1_555
C4 C5 1_555 1_555
C5 H6 1_555 1_555
C5 C6 1_555 1_555
C6 C7 1_555 1_555
C7 N2 1_555 1_555
C7 C11 1_555 1_555
N2 C8 1_555 1_555
C8 C9 1_555 1_555
C8 C12 1_555 1_555
C9 H7 1_555 1_555
C9 C10 1_555 1_555
C10 H8 1_555 1_555
C10 C11 1_555 1_555
C11 H9 1_555 1_555
C12 N3 1_555 1_555
C12 C15 1_555 1_555
N3 C13 1_555 1_555
C13 H10 1_555 1_555
C13 C14 1_555 1_555
C14 H11 1_555 1_555
C14 N4 1_555 1_555
N4 C15 1_555 1_555
N4 Mn2A 1_555 1_555
C15 C16 1_555 1_555
C16 N5 1_555 1_555
C16 C20 1_555 1_555
N5 C17 1_555 1_555
N5 Mn2A 1_555 1_555
C17 C18 1_555 1_555
C17 C21 1_555 1_555
C18 H12 1_555 1_555
C18 C19 1_555 1_555
C19 H13 1_555 1_555
C19 C20 1_555 1_555
C20 H14 1_555 1_555
C21 N6 1_555 1_555
C21 C26 1_555 1_555
N6 C22 1_555 1_555
N6 Mn2A 1_555 1_555
C22 C23 1_555 1_555
C22 C24 1_555 1_555
C23 H15 1_555 1_555
C23 H16 1_555 1_555
C23 H17 1_555 1_555
C24 H18 1_555 1_555
C24 C25 1_555 1_555
C25 H19 1_555 1_555
C25 C26 1_555 1_555
C26 H20 1_555 1_555
N7 C27 1_555 1_555
N7 C32 1_555 1_555
C27 C28 1_555 1_555
C27 C29 1_555 1_555
C28 H21 1_555 1_555
C28 H22 1_555 1_555
C28 H23 1_555 1_555
C29 H24 1_555 1_555
C29 C30 1_555 1_555
C30 H25 1_555 1_555
C30 C31 1_555 1_555
C31 H26 1_555 1_555
C31 C32 1_555 1_555
C32 C33 1_555 1_555
C33 N8 1_555 1_555
C33 C37 1_555 1_555
N8 C34 1_555 1_555
C34 C35 1_555 1_555
C34 C38 1_555 1_555
C35 H27 1_555 1_555
C35 C36 1_555 1_555
C36 H28 1_555 1_555
C36 C37 1_555 1_555
C37 H29 1_555 1_555
C38 N9 1_555 1_555
C38 C41 1_555 1_555
N9 C39 1_555 1_555
C39 H30 1_555 1_555
C39 C40 1_555 1_555
C40 H31 1_555 1_555
C40 N10 1_555 1_555
N10 C41 1_555 1_555
C41 C42 1_555 1_555
C42 N11 1_555 1_555
C42 C46 1_555 1_555
N11 C43 1_555 1_555
C43 C44 1_555 1_555
C43 C47 1_555 1_555
C44 H32 1_555 1_555
C44 C45 1_555 1_555
C45 H33 1_555 1_555
C45 C46 1_555 1_555
C46 H34 1_555 1_555
C47 N12 1_555 1_555
C47 C52 1_555 1_555
N12 C48 1_555 1_555
C48 C49 1_555 1_555
C48 C50 1_555 1_555
C49 H35 1_555 1_555
C49 H36 1_555 1_555
C49 H37 1_555 1_555
C50 H38 1_555 1_555
C50 C51 1_555 1_555
C51 H39 1_555 1_555
C51 C52 1_555 1_555
C52 H40 1_555 1_555
Mn1A N1A 1_555 1_555
Mn1A N2A 1_555 1_555
Mn1A N3A 1_555 1_555
Mn1A N7A 1_555 1_555
Mn1A N8A 1_555 1_555
Mn1A N9A 1_555 1_555
Mn2A N10A 1_555 1_555
Mn2A N11A 1_555 1_555
Mn2A N12A 1_555 1_555
N1A C1A 1_555 1_555
N1A C6A 1_555 1_555
C1A C2A 1_555 1_555
C1A C3A 1_555 1_555
C2A H1A 1_555 1_555
C2A H2A 1_555 1_555
C2A H3A 1_555 1_555
C3A H4A 1_555 1_555
C3A C4A 1_555 1_555
C4A H5A 1_555 1_555
C4A C5A 1_555 1_555
C5A H6A 1_555 1_555
C5A C6A 1_555 1_555
C6A C7A 1_555 1_555
C7A N2A 1_555 1_555
C7A C11A 1_555 1_555
N2A C8A 1_555 1_555
C8A C9A 1_555 1_555
C8A C12A 1_555 1_555
C9A H7A 1_555 1_555
C9A C10A 1_555 1_555
C10A H8A 1_555 1_555
C10A C11A 1_555 1_555
C11A H9A 1_555 1_555
C12A N3A 1_555 1_555
C12A C15A 1_555 1_555
N3A C13A 1_555 1_555
C13A H10A 1_555 1_555
C13A C14A 1_555 1_555
C14A H11A 1_555 1_555
C14A N4A 1_555 1_555
N4A C15A 1_555 1_555
C15A C16A 1_555 1_555
C16A N5A 1_555 1_555
C16A C20A 1_555 1_555
N5A C17A 1_555 1_555
C17A C18A 1_555 1_555
C17A C21A 1_555 1_555
C18A H12A 1_555 1_555
C18A C19A 1_555 1_555
C19A H13A 1_555 1_555
C19A C20A 1_555 1_555
C20A H14A 1_555 1_555
C21A N6A 1_555 1_555
C21A C26A 1_555 1_555
N6A C22A 1_555 1_555
C22A C23A 1_555 1_555
C22A C24A 1_555 1_555
C23A H15A 1_555 1_555
C23A H16A 1_555 1_555
C23A H17A 1_555 1_555
C24A H18A 1_555 1_555
C24A C25A 1_555 1_555
C25A H19A 1_555 1_555
C25A C26A 1_555 1_555
C26A H20A 1_555 1_555
N7A C27A 1_555 1_555
N7A C32A 1_555 1_555
C27A C28A 1_555 1_555
C27A C29A 1_555 1_555
C28A H21A 1_555 1_555
C28A H22A 1_555 1_555
C28A H23A 1_555 1_555
C29A H24A 1_555 1_555
C29A C30A 1_555 1_555
C30A H25A 1_555 1_555
C30A C31A 1_555 1_555
C31A H26A 1_555 1_555
C31A C32A 1_555 1_555
C32A C33A 1_555 1_555
C33A N8A 1_555 1_555
C33A C37A 1_555 1_555
N8A C34A 1_555 1_555
C34A C35A 1_555 1_555
C34A C38A 1_555 1_555
C35A H27A 1_555 1_555
C35A C36A 1_555 1_555
C36A H28A 1_555 1_555
C36A C37A 1_555 1_555
C37A H29A 1_555 1_555
C38A N9A 1_555 1_555
C38A C41A 1_555 1_555
N9A C39A 1_555 1_555
C39A H30A 1_555 1_555
C39A C40A 1_555 1_555
C40A H31A 1_555 1_555
C40A N10A 1_555 1_555
N10A C41A 1_555 1_555
C41A C42A 1_555 1_555
C42A N11A 1_555 1_555
C42A C46A 1_555 1_555
N11A C43A 1_555 1_555
C43A C44A 1_555 1_555
C43A C47A 1_555 1_555
C44A H32A 1_555 1_555
C44A C45A 1_555 1_555
C45A H33A 1_555 1_555
C45A C46A 1_555 1_555
C46A H34A 1_555 1_555
C47A N12A 1_555 1_555
C47A C52A 1_555 1_555
N12A C48A 1_555 1_555
C48A C49A 1_555 1_555
C48A C50A 1_555 1_555
C49A H35A 1_555 1_555
C49A H36A 1_555 1_555
C49A H37A 1_555 1_555
C50A H38A 1_555 1_555
C50A C51A 1_555 1_555
C51A H39A 1_555 1_555
C51A C52A 1_555 1_555
C52A H40A 1_555 1_555

#END
