
#######################################################################
#
#                 Cambridge Crystallographic Data Centre
#                                CCDC 
#
#######################################################################
#
# If this CIF has been generated from an entry in the Cambridge 
# Structural Database, then it will include bibliographic, chemical, 
# crystal, experimental, refinement or atomic coordinate data resulting 
# from the CCDC's data processing and validation procedures.
#
#######################################################################

data_VIQTIZ
_chemical_formula_moiety         
'C114 H168 Br2 Mo8 N66 Pt11 3+,3(Br1 1-),6(H2 O1)'
_chemical_name_systematic        
'tetracosakis(\m~2~-cyano)-octakis(1,4,7-trimethyl-1,4,7-triazacyclononane)-dibromo-octadecacyano-octa-molybdenum(iii)-undeca-platinum(ii) tribromide hexahydrate'
_symmetry_cell_setting           monoclinic
_symmetry_space_group_name_H-M   'P 21/n'
_symmetry_Int_Tables_number      14
_space_group_name_Hall           '-P 2yn'
loop_
_symmetry_equiv_pos_site_id
_symmetry_equiv_pos_as_xyz
1 x,y,z
2 1/2-x,1/2+y,1/2-z
3 -x,-y,-z
4 1/2+x,1/2-y,1/2+z
_cell_length_a                   19.3671(12)
_cell_length_b                   16.5969(11)
_cell_length_c                   28.0756(18)
_cell_angle_alpha                90
_cell_angle_beta                 92.949(1)
_cell_angle_gamma                90
_cell_volume                     9012.5
_exptl_crystal_colour            red-orange
_exptl_crystal_description       'truncated trigonal prism'
_cell_formula_units_Z            2
loop_
_atom_site_label
_atom_site_type_symbol
_atom_site_fract_x
_atom_site_fract_y
_atom_site_fract_z
Pt1 Pt 0.18442(4) 0.54763(4) 0.41370(3)
C1 C 0.1481(10) 0.4632(14) 0.3695(7)
C2 C 0.2366(10) 0.4649(13) 0.4529(7)
C3 C 0.1267(9) 0.6277(13) 0.3808(7)
C4 C 0.2111(9) 0.6308(14) 0.4624(8)
N1 N 0.1258(9) 0.4139(11) 0.3459(6)
N2 N 0.2620(8) 0.4181(10) 0.4755(6)
N3 N 0.0910(9) 0.6744(11) 0.3622(6)
N4 N 0.2221(8) 0.6769(10) 0.4910(6)
Pt2 Pt 0.13755(4) 0.50085(5) 0.63418(3)
C5 C 0.1796(11) 0.6020(13) 0.6096(7)
C6 C 0.0644(12) 0.5692(13) 0.6644(7)
C7 C 0.2032(10) 0.4338(12) 0.6007(8)
C8 C 0.0887(10) 0.3997(12) 0.6528(7)
N5 N 0.2012(9) 0.6578(10) 0.5923(6)
N6 N 0.0225(9) 0.6098(11) 0.6786(6)
N7 N 0.2398(8) 0.3965(11) 0.5780(7)
N8 N 0.0587(8) 0.3423(11) 0.6591(6)
Pt3 Pt -0.03414(4) 0.77193(5) 0.51452(3)
C9 C 0.0664(12) 0.7846(12) 0.5295(7)
C10 C -0.0194(9) 0.7833(12) 0.4447(9)
C11 C -0.0464(10) 0.7480(12) 0.5817(8)
C12 C -0.1310(12) 0.7464(13) 0.5000(7)
N9 N 0.1254(10) 0.7829(10) 0.5390(7)
N10 N -0.0085(8) 0.7841(9) 0.4052(6)
N11 N -0.0541(8) 0.7316(10) 0.6207(7)
N12 N -0.1899(10) 0.7264(11) 0.4917(6)
Mo1 Mo 0.23127(8) 0.75579(10) 0.55054(6)
N13 N 0.2508(10) 0.8382(11) 0.6102(6)
N14 N 0.2688(9) 0.8587(11) 0.5118(6)
N15 N 0.3428(8) 0.7337(11) 0.5622(6)
C13 C 0.2506(19) 0.9205(14) 0.5885(10)
C14 C 0.247(3) 0.937(3) 0.5446(19)
C15 C 0.3430(12) 0.834(2) 0.5005(12)
H1 H 0.34010 0.80570 0.46930
H2 H 0.36960 0.88390 0.49600
C16 C 0.3814(12) 0.7860(17) 0.5318(10)
H3 H 0.41120 0.82140 0.55250
H4 H 0.41230 0.75200 0.51320
C17 C 0.3597(15) 0.755(2) 0.616(1)
C18 C 0.326(3) 0.830(4) 0.633(2)
C19 C 0.1983(15) 0.8321(18) 0.6463(10)
H5 H 0.20960 0.86990 0.67240
H6 H 0.19770 0.77700 0.65890
H7 H 0.15270 0.84530 0.63160
C20 C 0.2288(12) 0.8741(16) 0.4681(9)
H8 H 0.24780 0.92090 0.45200
H9 H 0.18070 0.88490 0.47520
H10 H 0.23060 0.82680 0.44720
C21 C 0.3619(11) 0.6495(14) 0.5570(9)
H11 H 0.41200 0.64370 0.56250
H12 H 0.34830 0.63120 0.52460
H13 H 0.33820 0.61690 0.58020
Mo2 Mo 0.01085(9) 0.75377(11) 0.33409(6)
N16 N 0.0310(9) 0.7267(11) 0.2594(7)
N17 N 0.0809(10) 0.8524(10) 0.3202(7)
N18 N -0.0647(9) 0.8351(12) 0.2985(7)
C22 C 0.0902(16) 0.7724(17) 0.2456(12)
H14 H 0.12600 0.73380 0.23610
H15 H 0.07610 0.80430 0.21690
C23 C 0.1212(17) 0.826(3) 0.2804(11)
H16 H 0.13600 0.87480 0.26340
H17 H 0.16370 0.79970 0.29410
C24 C 0.043(3) 0.924(3) 0.302(2)
C25 C -0.0305(15) 0.9183(14) 0.3057(12)
C26 C -0.0739(16) 0.808(2) 0.2476(11)
C27 C -0.048(3) 0.730(3) 0.2305(18)
C28 C 0.0443(13) 0.6418(13) 0.2511(9)
H18 H 0.05280 0.63340 0.21740
H19 H 0.00410 0.61000 0.25960
H20 H 0.08500 0.62480 0.27080
C29 C 0.1315(14) 0.8654(14) 0.3598(9)
H21 H 0.16190 0.91030 0.35210
H22 H 0.15910 0.81650 0.36510
H23 H 0.10740 0.87820 0.38870
C30 C -0.1316(12) 0.8326(16) 0.3207(10)
H24 H -0.16380 0.86990 0.30410
H25 H -0.12540 0.84840 0.35430
H26 H -0.15030 0.77780 0.31860
Mo3 Mo 0.06515(10) 0.32170(12) 0.31031(7)
N19 N 0.0102(10) 0.2266(10) 0.2708(6)
N20 N 0.0786(14) 0.3620(12) 0.2382(7)
N21 N 0.1545(10) 0.2458(13) 0.2938(8)
C31 C -0.0097(13) 0.2545(18) 0.2218(9)
C32 C 0.058(3) 0.309(3) 0.2037(19)
C33 C 0.1767(18) 0.349(3) 0.2438(13)
C34 C 0.196(2) 0.257(3) 0.2560(17)
C35 C 0.126(2) 0.153(3) 0.2981(18)
C36 C 0.070(3) 0.155(3) 0.263(2)
C37 C -0.0551(13) 0.2038(16) 0.2948(8)
H27 H -0.07900 0.16080 0.27660
H28 H -0.08550 0.25100 0.29600
H29 H -0.04330 0.18510 0.32730
C38 C 0.0693(12) 0.4473(14) 0.2346(9)
H30 H 0.07510 0.46440 0.20170
H31 H 0.10370 0.47440 0.25590
H32 H 0.02270 0.46140 0.24390
C39 C 0.2082(12) 0.2434(17) 0.3337(11)
H33 H 0.24660 0.20910 0.32480
H34 H 0.18800 0.22150 0.36230
H35 H 0.22520 0.29810 0.34030
Mo4 Mo 0.28733(9) 0.32463(11) 0.52615(7)
N22 N 0.3922(9) 0.3657(10) 0.5465(8)
N23 N 0.3446(9) 0.2518(12) 0.4770(7)
N24 N 0.3216(9) 0.2278(11) 0.5743(7)
C40 C 0.4372(17) 0.3448(18) 0.5067(18)
H36 H 0.44950 0.39580 0.49090
H37 H 0.48060 0.32180 0.52100
C41 C 0.4140(12) 0.296(3) 0.4739(11)
H38 H 0.44970 0.25360 0.47080
H39 H 0.41150 0.32620 0.44360
C42 C 0.340(4) 0.169(4) 0.496(2)
C43 C 0.3381(18) 0.1575(15) 0.5404(14)
C44 C 0.3821(13) 0.2553(19) 0.6026(10)
C45 C 0.425(3) 0.317(3) 0.580(2)
C46 C 0.3991(12) 0.4563(13) 0.5541(10)
H40 H 0.44730 0.46950 0.56350
H41 H 0.36910 0.47320 0.57940
H42 H 0.38550 0.48450 0.52450
C47 C 0.3078(13) 0.2450(15) 0.4289(8)
H43 H 0.33520 0.21170 0.40800
H44 H 0.30160 0.29880 0.41490
H45 H 0.26240 0.22000 0.43210
C48 C 0.2660(13) 0.2021(17) 0.6069(10)
H46 H 0.28350 0.15830 0.62760
H47 H 0.22550 0.18320 0.58770
H48 H 0.25290 0.24790 0.62650
Pt4 Pt 0.31414(5) 0.57330(6) 0.35231(3)
N25 N 0.4138(13) 0.5705(18) 0.4439(8)
N26 N 0.342(3) 0.3912(13) 0.3328(19)
N27 N 0.217(2) 0.576(3) 0.2599(12)
N28 N 0.287(2) 0.7562(13) 0.3679(15)
C49 C 0.377(2) 0.577(4) 0.4115(13)
C50 C 0.327(5) 0.458(2) 0.335(4)
C51 C 0.250(2) 0.583(3) 0.2949(12)
C52 C 0.304(7) 0.6939(15) 0.354(4)
Pt5 Pt 0.24695(15) 0.50056(17) 0.7258(1)
C53 C 0.3251(13) 0.5347(19) 0.6861(10)
C54 C 0.253(3) 0.3771(12) 0.726(2)
C55 C 0.1683(10) 0.4545(14) 0.7618(8)
N29 N 0.3653(19) 0.535(3) 0.6589(15)
N30 N 0.2814(17) 0.3221(12) 0.7115(13)
N31 N 0.1239(15) 0.463(2) 0.7855(13)
Br2 Br 0.1808(3) 0.5951(3) 0.76840(19)
Pt1B Pt -0.18442(4) 0.45237(4) 0.58630(3)
C1B C -0.1481(10) 0.5368(14) 0.6305(7)
C2B C -0.2366(10) 0.5351(13) 0.5471(7)
C3B C -0.1267(9) 0.3723(13) 0.6192(7)
C4B C -0.2111(9) 0.3692(14) 0.5376(8)
N1B N -0.1258(9) 0.5861(11) 0.6541(6)
N2B N -0.2620(8) 0.5819(10) 0.5245(6)
N3B N -0.0910(9) 0.3256(11) 0.6378(6)
N4B N -0.2221(8) 0.3231(10) 0.5090(6)
Pt2B Pt -0.13755(4) 0.49915(5) 0.36582(3)
C5B C -0.1796(11) 0.3980(13) 0.3904(7)
C6B C -0.0644(12) 0.4308(13) 0.3356(7)
C7B C -0.2032(10) 0.5662(12) 0.3993(8)
C8B C -0.0887(10) 0.6003(12) 0.3472(7)
N5B N -0.2012(9) 0.3422(10) 0.4077(6)
N6B N -0.0225(9) 0.3902(11) 0.3214(6)
N7B N -0.2398(8) 0.6035(11) 0.4220(7)
N8B N -0.0587(8) 0.6577(11) 0.3409(6)
Pt3B Pt 0.03414(4) 0.22807(5) 0.48548(3)
C9B C -0.0664(12) 0.2154(12) 0.4705(7)
C10B C 0.0194(9) 0.2167(12) 0.5553(9)
C11B C 0.0464(10) 0.2520(12) 0.4183(8)
C12B C 0.1310(12) 0.2536(13) 0.5000(7)
N9B N -0.1254(10) 0.2171(10) 0.4610(7)
N10B N 0.0085(8) 0.2159(9) 0.5948(6)
N11B N 0.0541(8) 0.2684(10) 0.3793(7)
N12B N 0.1899(10) 0.2736(11) 0.5083(6)
Mo1B Mo -0.23127(8) 0.24421(10) 0.44946(6)
N13B N -0.2508(10) 0.1618(11) 0.3898(6)
N14B N -0.2688(9) 0.1413(11) 0.4882(6)
N15B N -0.3428(8) 0.2663(11) 0.4378(6)
C13B C -0.2506(19) 0.0795(14) 0.4115(10)
C14B C -0.247(3) 0.063(3) 0.4554(19)
C15B C -0.3430(12) 0.166(2) 0.4995(12)
H1B H -0.34010 0.19430 0.53070
H2B H -0.36960 0.11610 0.50400
C16B C -0.3814(12) 0.2140(17) 0.4682(10)
H3B H -0.41120 0.17860 0.44750
H4B H -0.41230 0.24800 0.48680
C17B C -0.3597(15) 0.245(2) 0.384(1)
C18B C -0.326(3) 0.170(4) 0.367(2)
C19B C -0.1983(15) 0.1679(18) 0.3537(10)
H5B H -0.20960 0.13010 0.32760
H6B H -0.19770 0.22300 0.34110
H7B H -0.15270 0.15470 0.36840
C20B C -0.2288(12) 0.1259(16) 0.5319(9)
H8B H -0.24780 0.07910 0.54800
H9B H -0.18070 0.11510 0.52480
H10B H -0.23060 0.17320 0.55280
C21B C -0.3619(11) 0.3505(14) 0.4430(9)
H11B H -0.41200 0.35630 0.43750
H12B H -0.34830 0.36880 0.47540
H13B H -0.33820 0.38310 0.41980
Mo2B Mo -0.01085(9) 0.24623(11) 0.66591(6)
N16B N -0.0310(9) 0.2733(11) 0.7406(7)
N17B N -0.0809(10) 0.1476(10) 0.6798(7)
N18B N 0.0647(9) 0.1649(12) 0.7015(7)
C22B C -0.0902(16) 0.2276(17) 0.7544(12)
H14B H -0.12600 0.26620 0.76390
H15B H -0.07610 0.19570 0.78310
C23B C -0.1212(17) 0.174(3) 0.7196(11)
H16B H -0.13600 0.12520 0.73660
H17B H -0.16370 0.20030 0.70590
C24B C -0.043(3) 0.076(3) 0.698(2)
C25B C 0.0305(15) 0.0817(14) 0.6943(12)
C26B C 0.0739(16) 0.192(2) 0.7524(11)
C27B C 0.048(3) 0.270(3) 0.7695(18)
C28B C -0.0443(13) 0.3582(13) 0.7489(9)
H18B H -0.05280 0.36660 0.78260
H19B H -0.00410 0.39000 0.74040
H20B H -0.08500 0.37520 0.72920
C29B C -0.1315(14) 0.1346(14) 0.6402(9)
H21B H -0.16190 0.08970 0.64790
H22B H -0.15910 0.18350 0.63490
H23B H -0.10740 0.12180 0.61130
C30B C 0.1316(12) 0.1674(16) 0.6793(10)
H24B H 0.16380 0.13010 0.69590
H25B H 0.12540 0.15160 0.64570
H26B H 0.15030 0.22220 0.68140
Mo3B Mo -0.06515(10) 0.67830(12) 0.68969(7)
N19B N -0.0102(10) 0.7734(10) 0.7292(6)
N20B N -0.0786(14) 0.6380(12) 0.7618(7)
N21B N -0.1545(10) 0.7542(13) 0.7062(8)
C31B C 0.0097(13) 0.7455(18) 0.7782(9)
C32B C -0.058(3) 0.691(3) 0.7963(19)
C33B C -0.1767(18) 0.651(3) 0.7562(13)
C34B C -0.196(2) 0.743(3) 0.7440(17)
C35B C -0.126(2) 0.847(3) 0.7019(18)
C36B C -0.070(3) 0.845(3) 0.737(2)
C37B C 0.0551(13) 0.7962(16) 0.7052(8)
H27B H 0.07900 0.83920 0.72340
H28B H 0.08550 0.74900 0.70400
H29B H 0.04330 0.81490 0.67270
C38B C -0.0693(12) 0.5527(14) 0.7654(9)
H30B H -0.07510 0.53560 0.79830
H31B H -0.10370 0.52560 0.74410
H32B H -0.02270 0.53860 0.75610
C39B C -0.2082(12) 0.7566(17) 0.6663(11)
H33B H -0.24660 0.79090 0.67520
H34B H -0.18800 0.77850 0.63770
H35B H -0.22520 0.70190 0.65970
Mo4B Mo -0.28733(9) 0.67537(11) 0.47385(7)
N22B N -0.3922(9) 0.6343(10) 0.4535(8)
N23B N -0.3446(9) 0.7482(12) 0.5230(7)
N24B N -0.3216(9) 0.7722(11) 0.4257(7)
C40B C -0.4372(17) 0.6552(18) 0.4933(18)
H36B H -0.44950 0.60420 0.50910
H37B H -0.48060 0.67820 0.47900
C41B C -0.4140(12) 0.704(3) 0.5261(11)
H38B H -0.44970 0.74640 0.52920
H39B H -0.41150 0.67380 0.55640
C42B C -0.340(4) 0.831(4) 0.504(2)
C43B C -0.3381(18) 0.8425(15) 0.4596(14)
C44B C -0.3821(13) 0.7447(19) 0.3974(10)
C45B C -0.425(3) 0.683(3) 0.420(2)
C46B C -0.3991(12) 0.5437(13) 0.4459(10)
H40B H -0.44730 0.53050 0.43650
H41B H -0.36910 0.52680 0.42060
H42B H -0.38550 0.51550 0.47550
C47B C -0.3078(13) 0.7550(15) 0.5711(8)
H43B H -0.33520 0.78830 0.59200
H44B H -0.30160 0.70120 0.58510
H45B H -0.26240 0.78000 0.56790
C48B C -0.2660(13) 0.7979(17) 0.3931(10)
H46B H -0.28350 0.84170 0.37240
H47B H -0.22550 0.81680 0.41230
H48B H -0.25290 0.75210 0.37350
Pt4B Pt -0.31414(5) 0.42670(6) 0.64769(3)
N25B N -0.4138(13) 0.4295(18) 0.5561(8)
N26B N -0.342(3) 0.6088(13) 0.6672(19)
N27B N -0.217(2) 0.424(3) 0.7401(12)
N28B N -0.287(2) 0.2438(13) 0.6321(15)
C49B C -0.377(2) 0.423(4) 0.5885(13)
C50B C -0.327(5) 0.542(2) 0.665(4)
C51B C -0.250(2) 0.417(3) 0.7051(12)
C52B C -0.304(7) 0.3061(15) 0.646(4)
Pt5B Pt -0.24695(15) 0.49944(17) 0.2742(1)
C53B C -0.3251(13) 0.4653(19) 0.3139(10)
C54B C -0.253(3) 0.6229(12) 0.274(2)
C55B C -0.1683(10) 0.5455(14) 0.2382(8)
N29B N -0.3653(19) 0.465(3) 0.3411(15)
N30B N -0.2814(17) 0.6779(12) 0.2885(13)
N31B N -0.1239(15) 0.537(2) 0.2145(13)
Br2B Br -0.1808(3) 0.4049(3) 0.23160(19)
loop_
_geom_bond_atom_site_label_1
_geom_bond_atom_site_label_2
_geom_bond_site_symmetry_1
_geom_bond_site_symmetry_2
Pt1 C1 1_555 1_555
Pt1 C2 1_555 1_555
Pt1 C3 1_555 1_555
Pt1 C4 1_555 1_555
Pt1 Pt4 1_555 1_555
C1 N1 1_555 1_555
C2 N2 1_555 1_555
C3 N3 1_555 1_555
C4 N4 1_555 1_555
N1 Mo3 1_555 1_555
N2 Mo4 1_555 1_555
N3 Mo2 1_555 1_555
N4 Mo1 1_555 1_555
Pt2 C5 1_555 1_555
Pt2 C6 1_555 1_555
Pt2 C7 1_555 1_555
Pt2 C8 1_555 1_555
Pt2 Pt5 1_555 1_555
C5 N5 1_555 1_555
C6 N6 1_555 1_555
C7 N7 1_555 1_555
C8 N8 1_555 1_555
N5 Mo1 1_555 1_555
N6 Mo3B 1_555 1_555
N7 Mo4 1_555 1_555
N8 Mo2B 1_555 1_555
Pt3 C9 1_555 1_555
Pt3 C10 1_555 1_555
Pt3 C11 1_555 1_555
Pt3 C12 1_555 1_555
C9 N9 1_555 1_555
C10 N10 1_555 1_555
C11 N11 1_555 1_555
C12 N12 1_555 1_555
N9 Mo1 1_555 1_555
N10 Mo2 1_555 1_555
N11 Mo3B 1_555 1_555
N12 Mo4B 1_555 1_555
Mo1 N13 1_555 1_555
Mo1 N14 1_555 1_555
Mo1 N15 1_555 1_555
N13 C13 1_555 1_555
N13 C18 1_555 1_555
N13 C19 1_555 1_555
N14 C14 1_555 1_555
N14 C15 1_555 1_555
N14 C20 1_555 1_555
N15 C16 1_555 1_555
N15 C17 1_555 1_555
N15 C21 1_555 1_555
C13 C14 1_555 1_555
C15 H1 1_555 1_555
C15 H2 1_555 1_555
C15 C16 1_555 1_555
C16 H3 1_555 1_555
C16 H4 1_555 1_555
C17 C18 1_555 1_555
C19 H5 1_555 1_555
C19 H6 1_555 1_555
C19 H7 1_555 1_555
C20 H8 1_555 1_555
C20 H9 1_555 1_555
C20 H10 1_555 1_555
C21 H11 1_555 1_555
C21 H12 1_555 1_555
C21 H13 1_555 1_555
Mo2 N16 1_555 1_555
Mo2 N17 1_555 1_555
Mo2 N18 1_555 1_555
Mo2 N8B 1_555 1_555
N16 C22 1_555 1_555
N16 C27 1_555 1_555
N16 C28 1_555 1_555
N17 C23 1_555 1_555
N17 C24 1_555 1_555
N17 C29 1_555 1_555
N18 C25 1_555 1_555
N18 C26 1_555 1_555
N18 C30 1_555 1_555
C22 H14 1_555 1_555
C22 H15 1_555 1_555
C22 C23 1_555 1_555
C23 H16 1_555 1_555
C23 H17 1_555 1_555
C24 C25 1_555 1_555
C26 C27 1_555 1_555
C28 H18 1_555 1_555
C28 H19 1_555 1_555
C28 H20 1_555 1_555
C29 H21 1_555 1_555
C29 H22 1_555 1_555
C29 H23 1_555 1_555
C30 H24 1_555 1_555
C30 H25 1_555 1_555
C30 H26 1_555 1_555
Mo3 N19 1_555 1_555
Mo3 N20 1_555 1_555
Mo3 N21 1_555 1_555
Mo3 N6B 1_555 1_555
Mo3 N11B 1_555 1_555
N19 C31 1_555 1_555
N19 C36 1_555 1_555
N19 C37 1_555 1_555
N20 C32 1_555 1_555
N20 C38 1_555 1_555
N21 C34 1_555 1_555
N21 C35 1_555 1_555
N21 C39 1_555 1_555
C31 C32 1_555 1_555
C33 C34 1_555 1_555
C37 H27 1_555 1_555
C37 H28 1_555 1_555
C37 H29 1_555 1_555
C38 H30 1_555 1_555
C38 H31 1_555 1_555
C38 H32 1_555 1_555
C39 H33 1_555 1_555
C39 H34 1_555 1_555
C39 H35 1_555 1_555
Mo4 N22 1_555 1_555
Mo4 N23 1_555 1_555
Mo4 N24 1_555 1_555
Mo4 N12B 1_555 1_555
N22 C40 1_555 1_555
N22 C45 1_555 1_555
N22 C46 1_555 1_555
N23 C41 1_555 1_555
N23 C42 1_555 1_555
N23 C47 1_555 1_555
N24 C43 1_555 1_555
N24 C44 1_555 1_555
N24 C48 1_555 1_555
C40 H36 1_555 1_555
C40 H37 1_555 1_555
C40 C41 1_555 1_555
C41 H38 1_555 1_555
C41 H39 1_555 1_555
C42 C43 1_555 1_555
C44 C45 1_555 1_555
C46 H40 1_555 1_555
C46 H41 1_555 1_555
C46 H42 1_555 1_555
C47 H43 1_555 1_555
C47 H44 1_555 1_555
C47 H45 1_555 1_555
C48 H46 1_555 1_555
C48 H47 1_555 1_555
C48 H48 1_555 1_555
Pt4 C49 1_555 1_555
Pt4 C50 1_555 1_555
Pt4 C51 1_555 1_555
Pt4 C52 1_555 1_555
N25 C49 1_555 1_555
N26 C50 1_555 1_555
N27 C51 1_555 1_555
N28 C52 1_555 1_555
Pt5 C53 1_555 1_555
Pt5 C54 1_555 1_555
Pt5 C55 1_555 1_555
Pt5 Br2 1_555 1_555
C53 N29 1_555 1_555
C54 N30 1_555 1_555
C55 N31 1_555 1_555
Pt1B C1B 1_555 1_555
Pt1B C2B 1_555 1_555
Pt1B C3B 1_555 1_555
Pt1B C4B 1_555 1_555
Pt1B Pt4B 1_555 1_555
C1B N1B 1_555 1_555
C2B N2B 1_555 1_555
C3B N3B 1_555 1_555
C4B N4B 1_555 1_555
N1B Mo3B 1_555 1_555
N2B Mo4B 1_555 1_555
N3B Mo2B 1_555 1_555
N4B Mo1B 1_555 1_555
Pt2B C5B 1_555 1_555
Pt2B C6B 1_555 1_555
Pt2B C7B 1_555 1_555
Pt2B C8B 1_555 1_555
Pt2B Pt5B 1_555 1_555
C5B N5B 1_555 1_555
C6B N6B 1_555 1_555
C7B N7B 1_555 1_555
C8B N8B 1_555 1_555
N5B Mo1B 1_555 1_555
N7B Mo4B 1_555 1_555
Pt3B C9B 1_555 1_555
Pt3B C10B 1_555 1_555
Pt3B C11B 1_555 1_555
Pt3B C12B 1_555 1_555
C9B N9B 1_555 1_555
C10B N10B 1_555 1_555
C11B N11B 1_555 1_555
C12B N12B 1_555 1_555
N9B Mo1B 1_555 1_555
N10B Mo2B 1_555 1_555
Mo1B N13B 1_555 1_555
Mo1B N14B 1_555 1_555
Mo1B N15B 1_555 1_555
N13B C13B 1_555 1_555
N13B C18B 1_555 1_555
N13B C19B 1_555 1_555
N14B C14B 1_555 1_555
N14B C15B 1_555 1_555
N14B C20B 1_555 1_555
N15B C16B 1_555 1_555
N15B C17B 1_555 1_555
N15B C21B 1_555 1_555
C13B C14B 1_555 1_555
C15B H1B 1_555 1_555
C15B H2B 1_555 1_555
C15B C16B 1_555 1_555
C16B H3B 1_555 1_555
C16B H4B 1_555 1_555
C17B C18B 1_555 1_555
C19B H5B 1_555 1_555
C19B H6B 1_555 1_555
C19B H7B 1_555 1_555
C20B H8B 1_555 1_555
C20B H9B 1_555 1_555
C20B H10B 1_555 1_555
C21B H11B 1_555 1_555
C21B H12B 1_555 1_555
C21B H13B 1_555 1_555
Mo2B N16B 1_555 1_555
Mo2B N17B 1_555 1_555
Mo2B N18B 1_555 1_555
N16B C22B 1_555 1_555
N16B C27B 1_555 1_555
N16B C28B 1_555 1_555
N17B C23B 1_555 1_555
N17B C24B 1_555 1_555
N17B C29B 1_555 1_555
N18B C25B 1_555 1_555
N18B C26B 1_555 1_555
N18B C30B 1_555 1_555
C22B H14B 1_555 1_555
C22B H15B 1_555 1_555
C22B C23B 1_555 1_555
C23B H16B 1_555 1_555
C23B H17B 1_555 1_555
C24B C25B 1_555 1_555
C26B C27B 1_555 1_555
C28B H18B 1_555 1_555
C28B H19B 1_555 1_555
C28B H20B 1_555 1_555
C29B H21B 1_555 1_555
C29B H22B 1_555 1_555
C29B H23B 1_555 1_555
C30B H24B 1_555 1_555
C30B H25B 1_555 1_555
C30B H26B 1_555 1_555
Mo3B N19B 1_555 1_555
Mo3B N20B 1_555 1_555
Mo3B N21B 1_555 1_555
N19B C31B 1_555 1_555
N19B C36B 1_555 1_555
N19B C37B 1_555 1_555
N20B C32B 1_555 1_555
N20B C38B 1_555 1_555
N21B C34B 1_555 1_555
N21B C35B 1_555 1_555
N21B C39B 1_555 1_555
C31B C32B 1_555 1_555
C33B C34B 1_555 1_555
C37B H27B 1_555 1_555
C37B H28B 1_555 1_555
C37B H29B 1_555 1_555
C38B H30B 1_555 1_555
C38B H31B 1_555 1_555
C38B H32B 1_555 1_555
C39B H33B 1_555 1_555
C39B H34B 1_555 1_555
C39B H35B 1_555 1_555
Mo4B N22B 1_555 1_555
Mo4B N23B 1_555 1_555
Mo4B N24B 1_555 1_555
N22B C40B 1_555 1_555
N22B C45B 1_555 1_555
N22B C46B 1_555 1_555
N23B C41B 1_555 1_555
N23B C42B 1_555 1_555
N23B C47B 1_555 1_555
N24B C43B 1_555 1_555
N24B C44B 1_555 1_555
N24B C48B 1_555 1_555
C40B H36B 1_555 1_555
C40B H37B 1_555 1_555
C40B C41B 1_555 1_555
C41B H38B 1_555 1_555
C41B H39B 1_555 1_555
C42B C43B 1_555 1_555
C44B C45B 1_555 1_555
C46B H40B 1_555 1_555
C46B H41B 1_555 1_555
C46B H42B 1_555 1_555
C47B H43B 1_555 1_555
C47B H44B 1_555 1_555
C47B H45B 1_555 1_555
C48B H46B 1_555 1_555
C48B H47B 1_555 1_555
C48B H48B 1_555 1_555
Pt4B C49B 1_555 1_555
Pt4B C50B 1_555 1_555
Pt4B C51B 1_555 1_555
Pt4B C52B 1_555 1_555
N25B C49B 1_555 1_555
N26B C50B 1_555 1_555
N27B C51B 1_555 1_555
N28B C52B 1_555 1_555
Pt5B C53B 1_555 1_555
Pt5B C54B 1_555 1_555
Pt5B C55B 1_555 1_555
Pt5B Br2B 1_555 1_555
C53B N29B 1_555 1_555
C54B N30B 1_555 1_555
C55B N31B 1_555 1_555

#END
