
#######################################################################
#
#                 Cambridge Crystallographic Data Centre
#                                CCDC 
#
#######################################################################
#
# If this CIF has been generated from an entry in the Cambridge 
# Structural Database, then it will include bibliographic, chemical, 
# crystal, experimental, refinement or atomic coordinate data resulting 
# from the CCDC's data processing and validation procedures.
#
#######################################################################

data_WEKPOV
_chemical_formula_moiety         'C74 H48 Cr2 Cu4 N12 O30,12(H2 O1)'
_chemical_name_systematic        
'tris(\m-oxalato)-tetrakis(1^2^,2^2^:2^6^,3^2^-terpyridine)-tetrakis(oxalato)-diaqua-di-chromium(iii)-tetra-copper(ii) dodecahydrate'
_symmetry_cell_setting           triclinic
_symmetry_space_group_name_H-M   'P -1'
_symmetry_Int_Tables_number      2
_space_group_name_Hall           '-P 1'
loop_
_symmetry_equiv_pos_site_id
_symmetry_equiv_pos_as_xyz
1 x,y,z
2 -x,-y,-z
_cell_length_a                   12.4229(3)
_cell_length_b                   12.8035(3)
_cell_length_c                   15.6110(4)
_cell_angle_alpha                99.777(2)
_cell_angle_beta                 110.631(2)
_cell_angle_gamma                108.437(2)
_cell_volume                     2090.98
_exptl_crystal_colour            'dark blue'
_exptl_crystal_description       prism
_cell_formula_units_Z            1
loop_
_atom_site_label
_atom_site_type_symbol
_atom_site_fract_x
_atom_site_fract_y
_atom_site_fract_z
Cu1 Cu 0.12135(2) 0.37733(2) 0.60180(2)
Cu2 Cu 0.21166(2) 0.56959(2) 0.36960(2)
Cr1 Cr 0.54077(2) 0.29636(2) 0.76577(2)
O1 O 0.13188(11) 0.46737(11) 0.51524(9)
O2 O 0.04516(11) 0.55422(10) 0.41662(9)
O3 O 0.23857(13) 0.42835(11) 0.36989(10)
H1 H 0.18368 0.38241 0.38206
H2 H 0.24844 0.40283 0.31279
O4 O 0.26108(12) 0.31888(12) 0.55865(9)
O5 O 0.35675(12) 0.18017(11) 0.48122(9)
O6 O 0.48067(11) 0.1970(1) 0.63201(8)
O7 O 0.39552(11) 0.33418(11) 0.70474(9)
O8 O 0.44637(11) 0.17198(11) 0.80426(9)
O9 O 0.67703(11) 0.24840(11) 0.82480(9)
O10 O 0.71436(14) 0.11408(13) 0.89097(11)
O11 O 0.47133(14) 0.03896(13) 0.87650(11)
O12 O 0.59084(11) 0.4194(1) 0.88448(8)
O13 O 0.64642(11) 0.42683(10) 0.73853(9)
O14 O 0.71696(13) 0.62033(11) 0.78217(10)
O15 O 0.65235(13) 0.61159(11) 0.93440(9)
N1 N 0.24160(13) 0.50224(13) 0.73093(10)
N2 N 0.12038(13) 0.28287(12) 0.68567(10)
N3 N -0.01745(13) 0.22262(13) 0.50402(11)
N4 N 0.35314(13) 0.67321(13) 0.50184(11)
N5 N 0.22031(13) 0.71928(12) 0.35872(10)
N6 N 0.07829(13) 0.51911(12) 0.23206(11)
C1 C 0.29259(17) 0.61690(16) 0.74873(14)
H3 H 0.27148 0.64642 0.69766
C2 C 0.37613(19) 0.69385(17) 0.84085(15)
H4 H 0.40957 0.77344 0.85144
C3 C 0.40830(18) 0.64939(18) 0.91623(14)
H5 H 0.46479 0.69885 0.97837
C4 C 0.35553(17) 0.53007(17) 0.89847(13)
H6 H 0.37631 0.49868 0.94836
C5 C 0.27159(15) 0.45894(15) 0.80528(12)
C6 C 0.20368(15) 0.33150(15) 0.77840(12)
C7 C 0.21833(18) 0.26367(17) 0.83878(13)
H7 H 0.27637 0.29648 0.90335
C8 C 0.14342(19) 0.14526(17) 0.79951(14)
H8 H 0.15178 0.09805 0.83842
C9 C 0.05635(17) 0.09613(16) 0.70328(14)
H9 H 0.00563 0.01698 0.67735
C10 C 0.04730(16) 0.16909(15) 0.64671(13)
C11 C -0.03704(15) 0.13543(15) 0.54291(13)
C12 C -0.12985(17) 0.02478(16) 0.48823(14)
H10 H -0.14144 -0.03461 0.51554
C13 C -0.20502(17) 0.00474(17) 0.39184(14)
H11 H -0.26845 -0.06844 0.35398
C14 C -0.18533(17) 0.09377(17) 0.35234(14)
H12 H -0.23527 0.08180 0.28804
C15 C -0.08904(17) 0.20167(16) 0.41105(13)
H13 H -0.07401 0.26147 0.38449
C16 C 0.41824(17) 0.63988(16) 0.57214(13)
H14 H 0.40508 0.56211 0.55981
C17 C 0.50485(18) 0.71792(18) 0.66297(14)
H15 H 0.55080 0.69312 0.71003
C18 C 0.52190(17) 0.83326(17) 0.68253(13)
H16 H 0.57717 0.88629 0.74358
C19 C 0.45509(16) 0.86856(16) 0.60950(13)
H17 H 0.46477 0.94541 0.62090
C20 C 0.37382(15) 0.78681(15) 0.51940(12)
C21 C 0.30332(15) 0.81407(14) 0.43395(12)
C22 C 0.31873(15) 0.92354(14) 0.42602(13)
H18 H 0.37562 0.99001 0.47814
C23 C 0.24639(16) 0.93119(15) 0.33755(13)
H19 H 0.25538 1.00373 0.33050
C24 C 0.16104(16) 0.83151(15) 0.25985(13)
H20 H 0.11321 0.83617 0.20065
C25 C 0.14958(15) 0.72479(14) 0.27355(12)
C26 C 0.06473(15) 0.60920(14) 0.20128(12)
C27 C -0.02382(17) 0.59186(16) 0.10959(13)
H21 H -0.03181 0.65442 0.08940
C28 C -0.10022(17) 0.47812(18) 0.04883(14)
H22 H -0.16051 0.46390 -0.01273
C29 C -0.08624(17) 0.38662(16) 0.08020(14)
H23 H -0.13659 0.31041 0.04021
C30 C 0.00460(17) 0.41053(15) 0.17278(13)
H24 H 0.01433 0.34908 0.19407
C31 C 0.05053(14) 0.50653(13) 0.48006(11)
C32 C 0.39821(15) 0.21870(13) 0.56874(12)
C33 C 0.34560(15) 0.29836(14) 0.61247(12)
C34 C 0.50959(16) 0.11804(15) 0.84533(12)
C35 C 0.64719(16) 0.16174(15) 0.85561(12)
C36 C 0.63497(15) 0.52147(15) 0.87886(12)
C37 C 0.66987(15) 0.52629(15) 0.79270(12)
O1A O -0.13188(11) 0.53263(11) 0.48476(9)
O2A O -0.04516(11) 0.44578(10) 0.58338(9)
C31A C -0.05053(14) 0.49347(13) 0.51994(11)
Cu1A Cu -0.12135(2) 0.62267(2) 0.39820(2)
Cu2A Cu -0.21166(2) 0.43041(2) 0.63040(2)
Cr1A Cr -0.54077(2) 0.70364(2) 0.23423(2)
O3A O -0.23857(13) 0.57165(11) 0.63011(10)
H1A H -0.18368 0.61759 0.61794
H2A H -0.24844 0.59717 0.68721
O4A O -0.26108(12) 0.68112(12) 0.44135(9)
O5A O -0.35675(12) 0.81983(11) 0.51878(9)
O6A O -0.48067(11) 0.8030(1) 0.36799(8)
O7A O -0.39552(11) 0.66582(11) 0.29526(9)
O8A O -0.44637(11) 0.82802(11) 0.19574(9)
O9A O -0.67703(11) 0.75160(11) 0.17520(9)
O10A O -0.71436(14) 0.88592(13) 0.10903(11)
O11A O -0.47133(14) 0.96104(13) 0.12350(11)
O12A O -0.59084(11) 0.5806(1) 0.11552(8)
O13A O -0.64642(11) 0.57317(10) 0.26147(9)
O14A O -0.71696(13) 0.37967(11) 0.21783(10)
O15A O -0.65235(13) 0.38841(11) 0.06560(9)
N1A N -0.24160(13) 0.49776(13) 0.26907(10)
N2A N -0.12038(13) 0.71713(12) 0.31433(10)
N3A N 0.01745(13) 0.77738(13) 0.49598(11)
N4A N -0.35314(13) 0.32679(13) 0.49816(11)
N5A N -0.22031(13) 0.28072(12) 0.64128(10)
N6A N -0.07829(13) 0.48089(12) 0.76794(11)
C1A C -0.29259(17) 0.38310(16) 0.25127(14)
H3A H -0.27148 0.35358 0.30234
C2A C -0.37613(19) 0.30615(17) 0.15915(15)
H4A H -0.40957 0.22656 0.14856
C3A C -0.40830(18) 0.35061(18) 0.08377(14)
H5A H -0.46479 0.30115 0.02163
C4A C -0.35553(17) 0.46993(17) 0.10153(13)
H6A H -0.37631 0.50132 0.05164
C5A C -0.27159(15) 0.54106(15) 0.19472(12)
C6A C -0.20368(15) 0.66850(15) 0.22160(12)
C7A C -0.21833(18) 0.73633(17) 0.16122(13)
H7A H -0.27637 0.70352 0.09665
C8A C -0.14342(19) 0.85474(17) 0.20049(14)
H8A H -0.15178 0.90195 0.16158
C9A C -0.05635(17) 0.90387(16) 0.29672(14)
H9A H -0.00563 0.98302 0.32265
C10A C -0.04730(16) 0.83091(15) 0.35329(13)
C11A C 0.03704(15) 0.86457(15) 0.45709(13)
C12A C 0.12985(17) 0.97522(16) 0.51177(14)
H10A H 0.14144 1.03461 0.48446
C13A C 0.20502(17) 0.99526(17) 0.60816(14)
H11A H 0.26845 1.06844 0.64602
C14A C 0.18533(17) 0.90623(17) 0.64766(14)
H12A H 0.23527 0.91820 0.71196
C15A C 0.08904(17) 0.79833(16) 0.58895(13)
H13A H 0.07401 0.73853 0.61551
C16A C -0.41824(17) 0.36012(16) 0.42786(13)
H14A H -0.40508 0.43789 0.44019
C17A C -0.50485(18) 0.28208(18) 0.33703(14)
H15A H -0.55080 0.30688 0.28997
C18A C -0.52190(17) 0.16674(17) 0.31747(13)
H16A H -0.57717 0.11371 0.25642
C19A C -0.45509(16) 0.13144(16) 0.39050(13)
H17A H -0.46477 0.05459 0.37910
C20A C -0.37382(15) 0.21319(15) 0.48060(12)
C21A C -0.30332(15) 0.18593(14) 0.56605(12)
C22A C -0.31873(15) 0.07646(14) 0.57398(13)
H18A H -0.37562 0.00999 0.52186
C23A C -0.24639(16) 0.06881(15) 0.66245(13)
H19A H -0.25538 -0.00373 0.66950
C24A C -0.16104(16) 0.16849(15) 0.74015(13)
H20A H -0.11321 0.16383 0.79935
C25A C -0.14958(15) 0.27521(14) 0.72645(12)
C26A C -0.06473(15) 0.39080(14) 0.79872(12)
C27A C 0.02382(17) 0.40814(16) 0.89041(13)
H21A H 0.03181 0.34558 0.91060
C28A C 0.10022(17) 0.52188(18) 0.95117(14)
H22A H 0.16051 0.53610 1.01273
C29A C 0.08624(17) 0.61338(16) 0.91980(14)
H23A H 0.13659 0.68959 0.95979
C30A C -0.00460(17) 0.58947(15) 0.82722(13)
H24A H -0.01433 0.65092 0.80593
C32A C -0.39821(15) 0.78130(13) 0.43126(12)
C33A C -0.34560(15) 0.70164(14) 0.38753(12)
C34A C -0.50959(16) 0.88196(15) 0.15467(12)
C35A C -0.64719(16) 0.83826(15) 0.14439(12)
C36A C -0.63497(15) 0.47853(15) 0.12114(12)
C37A C -0.66987(15) 0.47371(15) 0.20730(12)
loop_
_geom_bond_atom_site_label_1
_geom_bond_atom_site_label_2
_geom_bond_site_symmetry_1
_geom_bond_site_symmetry_2
Cu1 O1 1_555 1_555
Cu1 O4 1_555 1_555
Cu1 N1 1_555 1_555
Cu1 N2 1_555 1_555
Cu1 N3 1_555 1_555
Cu1 O2A 1_555 1_555
Cu2 O2 1_555 1_555
Cu2 O3 1_555 1_555
Cu2 N4 1_555 1_555
Cu2 N5 1_555 1_555
Cu2 N6 1_555 1_555
Cr1 O6 1_555 1_555
Cr1 O7 1_555 1_555
Cr1 O8 1_555 1_555
Cr1 O9 1_555 1_555
Cr1 O12 1_555 1_555
Cr1 O13 1_555 1_555
O1 C31 1_555 1_555
O2 C31 1_555 1_555
O2 Cu1A 1_555 1_555
O3 H1 1_555 1_555
O3 H2 1_555 1_555
O4 C33 1_555 1_555
O5 C32 1_555 1_555
O6 C32 1_555 1_555
O7 C33 1_555 1_555
O8 C34 1_555 1_555
O9 C35 1_555 1_555
O10 C35 1_555 1_555
O11 C34 1_555 1_555
O12 C36 1_555 1_555
O13 C37 1_555 1_555
O14 C37 1_555 1_555
O15 C36 1_555 1_555
N1 C1 1_555 1_555
N1 C5 1_555 1_555
N2 C6 1_555 1_555
N2 C10 1_555 1_555
N3 C11 1_555 1_555
N3 C15 1_555 1_555
N4 C16 1_555 1_555
N4 C20 1_555 1_555
N5 C21 1_555 1_555
N5 C25 1_555 1_555
N6 C26 1_555 1_555
N6 C30 1_555 1_555
C1 H3 1_555 1_555
C1 C2 1_555 1_555
C2 H4 1_555 1_555
C2 C3 1_555 1_555
C3 H5 1_555 1_555
C3 C4 1_555 1_555
C4 H6 1_555 1_555
C4 C5 1_555 1_555
C5 C6 1_555 1_555
C6 C7 1_555 1_555
C7 H7 1_555 1_555
C7 C8 1_555 1_555
C8 H8 1_555 1_555
C8 C9 1_555 1_555
C9 H9 1_555 1_555
C9 C10 1_555 1_555
C10 C11 1_555 1_555
C11 C12 1_555 1_555
C12 H10 1_555 1_555
C12 C13 1_555 1_555
C13 H11 1_555 1_555
C13 C14 1_555 1_555
C14 H12 1_555 1_555
C14 C15 1_555 1_555
C15 H13 1_555 1_555
C16 H14 1_555 1_555
C16 C17 1_555 1_555
C17 H15 1_555 1_555
C17 C18 1_555 1_555
C18 H16 1_555 1_555
C18 C19 1_555 1_555
C19 H17 1_555 1_555
C19 C20 1_555 1_555
C20 C21 1_555 1_555
C21 C22 1_555 1_555
C22 H18 1_555 1_555
C22 C23 1_555 1_555
C23 H19 1_555 1_555
C23 C24 1_555 1_555
C24 H20 1_555 1_555
C24 C25 1_555 1_555
C25 C26 1_555 1_555
C26 C27 1_555 1_555
C27 H21 1_555 1_555
C27 C28 1_555 1_555
C28 H22 1_555 1_555
C28 C29 1_555 1_555
C29 H23 1_555 1_555
C29 C30 1_555 1_555
C30 H24 1_555 1_555
C31 C31A 1_555 1_555
C32 C33 1_555 1_555
C34 C35 1_555 1_555
C36 C37 1_555 1_555
O1A C31A 1_555 1_555
O1A Cu1A 1_555 1_555
O2A C31A 1_555 1_555
O2A Cu2A 1_555 1_555
Cu1A O4A 1_555 1_555
Cu1A N1A 1_555 1_555
Cu1A N2A 1_555 1_555
Cu1A N3A 1_555 1_555
Cu2A O3A 1_555 1_555
Cu2A N4A 1_555 1_555
Cu2A N5A 1_555 1_555
Cu2A N6A 1_555 1_555
Cr1A O6A 1_555 1_555
Cr1A O7A 1_555 1_555
Cr1A O8A 1_555 1_555
Cr1A O9A 1_555 1_555
Cr1A O12A 1_555 1_555
Cr1A O13A 1_555 1_555
O3A H1A 1_555 1_555
O3A H2A 1_555 1_555
O4A C33A 1_555 1_555
O5A C32A 1_555 1_555
O6A C32A 1_555 1_555
O7A C33A 1_555 1_555
O8A C34A 1_555 1_555
O9A C35A 1_555 1_555
O10A C35A 1_555 1_555
O11A C34A 1_555 1_555
O12A C36A 1_555 1_555
O13A C37A 1_555 1_555
O14A C37A 1_555 1_555
O15A C36A 1_555 1_555
N1A C1A 1_555 1_555
N1A C5A 1_555 1_555
N2A C6A 1_555 1_555
N2A C10A 1_555 1_555
N3A C11A 1_555 1_555
N3A C15A 1_555 1_555
N4A C16A 1_555 1_555
N4A C20A 1_555 1_555
N5A C21A 1_555 1_555
N5A C25A 1_555 1_555
N6A C26A 1_555 1_555
N6A C30A 1_555 1_555
C1A H3A 1_555 1_555
C1A C2A 1_555 1_555
C2A H4A 1_555 1_555
C2A C3A 1_555 1_555
C3A H5A 1_555 1_555
C3A C4A 1_555 1_555
C4A H6A 1_555 1_555
C4A C5A 1_555 1_555
C5A C6A 1_555 1_555
C6A C7A 1_555 1_555
C7A H7A 1_555 1_555
C7A C8A 1_555 1_555
C8A H8A 1_555 1_555
C8A C9A 1_555 1_555
C9A H9A 1_555 1_555
C9A C10A 1_555 1_555
C10A C11A 1_555 1_555
C11A C12A 1_555 1_555
C12A H10A 1_555 1_555
C12A C13A 1_555 1_555
C13A H11A 1_555 1_555
C13A C14A 1_555 1_555
C14A H12A 1_555 1_555
C14A C15A 1_555 1_555
C15A H13A 1_555 1_555
C16A H14A 1_555 1_555
C16A C17A 1_555 1_555
C17A H15A 1_555 1_555
C17A C18A 1_555 1_555
C18A H16A 1_555 1_555
C18A C19A 1_555 1_555
C19A H17A 1_555 1_555
C19A C20A 1_555 1_555
C20A C21A 1_555 1_555
C21A C22A 1_555 1_555
C22A H18A 1_555 1_555
C22A C23A 1_555 1_555
C23A H19A 1_555 1_555
C23A C24A 1_555 1_555
C24A H20A 1_555 1_555
C24A C25A 1_555 1_555
C25A C26A 1_555 1_555
C26A C27A 1_555 1_555
C27A H21A 1_555 1_555
C27A C28A 1_555 1_555
C28A H22A 1_555 1_555
C28A C29A 1_555 1_555
C29A H23A 1_555 1_555
C29A C30A 1_555 1_555
C30A H24A 1_555 1_555
C32A C33A 1_555 1_555
C34A C35A 1_555 1_555
C36A C37A 1_555 1_555

#END
