
#######################################################################
#
#                 Cambridge Crystallographic Data Centre
#                                CCDC 
#
#######################################################################
#
# If this CIF has been generated from an entry in the Cambridge 
# Structural Database, then it will include bibliographic, chemical, 
# crystal, experimental, refinement or atomic coordinate data resulting 
# from the CCDC's data processing and validation procedures.
#
#######################################################################

data_XOWNOM
_chemical_formula_moiety         
'C96 H168 Br6 Mo8 N48 Ni6 6+,6(Br1 1-),30(H2 O1)'
_chemical_name_systematic        
'tetracosakis(\m~2~-cyano)-octakis(1,4,7-trimethyl-1,4,7-triazacyclononane)-hexabromo-hexa-nickel(ii)-octa-molybdenum(iii) hexabromide hydrate'
_symmetry_cell_setting           rhombohedral
_symmetry_space_group_name_H-M   'R -3'
_symmetry_Int_Tables_number      148
_space_group_name_Hall           '-R 3'
loop_
_symmetry_equiv_pos_site_id
_symmetry_equiv_pos_as_xyz
1 x,y,z
2 -y,x-y,z
3 -x+y,-x,z
4 1/3+x,2/3+y,2/3+z
5 1/3-y,2/3+x-y,2/3+z
6 1/3-x+y,2/3-x,2/3+z
7 2/3+x,1/3+y,1/3+z
8 2/3-y,1/3+x-y,1/3+z
9 2/3-x+y,1/3-x,1/3+z
10 -x,-y,-z
11 y,-x+y,-z
12 x-y,x,-z
13 2/3-x,1/3-y,1/3-z
14 2/3+y,1/3-x+y,1/3-z
15 2/3+x-y,1/3+x,1/3-z
16 1/3-x,2/3-y,2/3-z
17 1/3+y,2/3-x+y,2/3-z
18 1/3+x-y,2/3+x,2/3-z
_cell_length_a                   19.7411(2)
_cell_length_b                   19.7411(2)
_cell_length_c                   41.9193(1)
_cell_angle_alpha                90
_cell_angle_beta                 90
_cell_angle_gamma                120
_cell_volume                     14147.7
_exptl_crystal_colour            orange
_exptl_crystal_description       parallelepiped
_cell_formula_units_Z            3
loop_
_atom_site_label
_atom_site_type_symbol
_atom_site_fract_x
_atom_site_fract_y
_atom_site_fract_z
Ni1 Ni -0.1091(1) -0.2181(1) 0.0638(1)
C1 C -0.0734(7) -0.1473(7) 0.0973(3)
N1 N -0.0501(6) -0.1002(6) 0.1176(2)
C2 C -0.1357(7) -0.2711(7) 0.0254(3)
N2 N -0.1503(7) -0.3007(6) 0.0005(3)
C3 C -0.1988(7) -0.2096(8) 0.0610(3)
N3 N -0.2518(6) -0.2017(7) 0.0575(3)
C4 C -0.0105(8) -0.2094(8) 0.0610(3)
N4 N 0.0502(7) -0.2013(7) 0.0575(3)
Mo1 Mo -0.00000 0.00000 0.1473(1)
N5 N 0.0476(7) 0.0946(6) 0.1816(2)
C5 C 0.1040(15) 0.0860(12) 0.2007(6)
C6 C -0.0196(14) 0.0853(17) 0.2006(6)
C7 C 0.0875(12) 0.1747(8) 0.1658(4)
Mo2 Mo -0.1686(1) -0.3373(1) -0.0481(4)
N6 N -0.1929(7) -0.3860(6) -0.0959(3)
N7 N -0.2880(7) -0.4334(6) -0.0412(3)
N8 N -0.1457(7) -0.4335(6) -0.0412(3)
C8 C -0.2866(18) -0.4221(18) -0.0958(8)
C10 C -0.3257(17) -0.4392(18) -0.0774(7)
C12 C -0.2689(17) -0.4910(16) -0.0176(7)
C14 C -0.2230(17) -0.4918(16) -0.0179(7)
C16 C -0.1141(17) -0.4399(17) -0.0778(7)
C18 C -0.1348(19) -0.4205(18) -0.0961(7)
C20 C -0.1619(11) -0.3248(9) -0.1220(3)
C21 C -0.3362(9) -0.4110(9) -0.0213(4)
C22 C -0.0752(9) -0.4116(9) -0.0214(4)
Br1 Br -0.1766(2) -0.3532(1) 0.1014(1)
H1 H 0.1555(15) 0.1269(12) 0.1941(6)
H2 H 0.0971(15) 0.0970(12) 0.2226(6)
H3 H -0.0023(14) 0.0974(17) 0.2226(6)
H4 H -0.0313(14) 0.1250(17) 0.1935(6)
H5 H 0.0532(32) 0.1767(28) 0.1501(23)
H6 H 0.1349(41) 0.1835(34) 0.1556(28)
H7 H 0.0997(74) 0.2143(10) 0.1816(7)
H8 H -0.1063(14) -0.2922(42) -0.1197(16)
H9 H -0.1862(49) -0.2932(43) -0.1204(17)
H10 H -0.1736(39) -0.3500(9) -0.1424(3)
H11 H -0.3423(52) -0.3716(45) -0.0321(12)
H12 H -0.3108(32) -0.3910(58) -0.0012(10)
H13 H -0.3867(23) -0.4562(16) -0.0178(21)
H14 H -0.0800(29) -0.3905(58) -0.0015(11)
H15 H -0.0295(11) -0.3729(46) -0.0325(11)
H16 H -0.0706(35) -0.4570(15) -0.0176(21)
N1B N -0.0501(6) 0.0501(6) 0.1176(2)
C1B C -0.0739(7) 0.0734(7) 0.0973(3)
Ni1B Ni -0.1090(1) 0.1091(1) 0.0638(1)
C2B C -0.1354(7) 0.1357(7) 0.0254(3)
N2B N -0.1504(7) 0.1503(6) 0.0005(3)
Mo2B Mo -0.1687(1) 0.1686(1) -0.0481(4)
N3J N -0.2017(6) 0.0501(7) -0.0575(3)
C3J C -0.2096(7) -0.0108(8) -0.0610(3)
Ni1J Ni -0.2181(1) -0.1090(1) -0.0638(1)
C1J C -0.1473(7) -0.0739(7) -0.0973(3)
N1J N -0.1002(6) -0.0501(6) -0.1176(2)
Mo1J Mo 0.00000 0.00000 -0.1473(1)
N1I N 0.0501(6) 0.1002(6) -0.1176(2)
C1I C 0.0734(7) 0.1473(7) -0.0973(3)
Ni1I Ni 0.1091(1) 0.2181(1) -0.0638(1)
C2I C 0.1357(7) 0.2711(7) -0.0254(3)
N2I N 0.1503(7) 0.3007(6) -0.0005(3)
Mo2I Mo 0.1686(1) 0.3373(1) 0.0481(4)
N3B N 0.0501(6) 0.2518(7) 0.0575(3)
C3B C -0.0108(7) 0.1988(8) 0.0610(3)
C4B C -0.1989(8) 0.0105(8) 0.0610(3)
N4B N -0.2515(7) -0.0502(7) 0.0575(3)
Mo2J Mo -0.3373(1) -0.1687(1) 0.0481(4)
N2J N -0.3007(7) -0.1504(6) -0.0005(3)
C2J C -0.2711(7) -0.1354(7) -0.0254(3)
C4J C -0.2094(8) -0.1989(8) -0.0610(3)
N4J N -0.2013(7) -0.2515(7) -0.0575(3)
N6J N -0.3860(7) -0.1931(6) 0.0959(3)
C8J C -0.4221(18) -0.1355(18) 0.0958(8)
C10J C -0.4392(17) -0.1135(18) 0.0774(7)
N7J N -0.4334(7) -0.1454(6) 0.0412(3)
N8J N -0.4335(7) -0.2878(6) 0.0412(3)
C14J C -0.4918(17) -0.2688(16) 0.0179(7)
C12J C -0.4910(17) -0.2221(16) 0.0176(7)
C21J C -0.4110(9) -0.0748(9) 0.0213(4)
H11J H -0.3716(52) -0.0293(45) 0.0321(12)
H12J H -0.3910(32) -0.0802(58) 0.0012(10)
H13J H -0.4562(23) -0.0695(16) 0.0178(21)
C16J C -0.4399(17) -0.3258(17) 0.0778(7)
C18J C -0.4205(19) -0.2857(18) 0.0961(7)
C20J C -0.3248(11) -0.1629(9) 0.1220(3)
H8J H -0.2922(14) -0.1859(42) 0.1197(16)
H9J H -0.2932(49) -0.1070(43) 0.1204(17)
H10J H -0.3500(39) -0.1764(9) 0.1424(3)
C22J C -0.4116(9) -0.3364(9) 0.0214(4)
H14J H -0.3905(29) -0.3105(58) 0.0015(11)
H15J H -0.3729(11) -0.3434(46) 0.0325(11)
H16J H -0.4570(35) -0.3864(15) 0.0176(21)
Mo2K Mo 0.1687(1) -0.1686(1) 0.0481(4)
N2K N 0.1504(7) -0.1503(6) -0.0005(3)
C2K C 0.1354(7) -0.1357(7) -0.0254(3)
Ni1K Ni 0.1090(1) -0.1091(1) -0.0638(1)
C1K C 0.0739(7) -0.0734(7) -0.0973(3)
N1K N 0.0501(6) -0.0501(6) -0.1176(2)
N5J N 0.0946(7) 0.0470(6) -0.1816(2)
C5J C 0.0860(15) -0.0180(12) -0.2007(6)
C6I C 0.0196(14) -0.0853(17) -0.2006(6)
N5I N -0.0476(7) -0.0946(6) -0.1816(2)
N5K N -0.0470(7) 0.0476(6) -0.1816(2)
C5K C 0.0180(15) 0.1040(12) -0.2007(6)
C6J C 0.0853(14) 0.1049(17) -0.2006(6)
C7J C 0.1747(12) 0.0872(8) -0.1658(4)
H5J H 0.1767(32) 0.1235(28) -0.1501(23)
H6J H 0.1835(41) 0.0486(34) -0.1556(28)
H7J H 0.2143(74) 0.1146(10) -0.1816(7)
H3J H 0.0974(14) 0.0997(17) -0.2226(6)
H4J H 0.1250(14) 0.1563(17) -0.1935(6)
H1K H 0.0286(15) 0.1555(12) -0.1941(6)
H2K H 0.0001(15) 0.0971(12) -0.2226(6)
C6K C -0.1049(14) -0.0196(17) -0.2006(6)
C5I C -0.1040(15) -0.0860(12) -0.2007(6)
C7I C -0.0875(12) -0.1747(8) -0.1658(4)
H5I H -0.0532(32) -0.1767(28) -0.1501(23)
H6I H -0.1349(41) -0.1835(34) -0.1556(28)
H7I H -0.0997(74) -0.2143(10) -0.1816(7)
H1I H -0.1555(15) -0.1269(12) -0.1941(6)
H2I H -0.0971(15) -0.0970(12) -0.2226(6)
H3K H -0.0997(14) -0.0023(17) -0.2226(6)
H4K H -0.1563(14) -0.0313(17) -0.1935(6)
C7K C -0.0872(12) 0.0875(8) -0.1658(4)
H5K H -0.1235(32) 0.0532(28) -0.1501(23)
H6K H -0.0486(41) 0.1349(34) -0.1556(28)
H7K H -0.1146(74) 0.0997(10) -0.1816(7)
H3I H 0.0023(14) -0.0974(17) -0.2226(6)
H4I H 0.0313(14) -0.1250(17) -0.1935(6)
H1J H 0.1269(15) -0.0286(12) -0.1941(6)
H2J H 0.0970(15) -0.0001(12) -0.2226(6)
C3K C 0.0108(7) -0.1988(8) -0.0610(3)
N3K N -0.0501(6) -0.2518(7) -0.0575(3)
C4K C 0.1989(8) -0.0105(8) -0.0610(3)
N4K N 0.2515(7) 0.0502(7) -0.0575(3)
Mo2A Mo 0.3373(1) 0.1687(1) -0.0481(4)
N2A N 0.3007(7) 0.1504(6) 0.0005(3)
C2A C 0.2711(7) 0.1354(7) 0.0254(3)
Ni1A Ni 0.2181(1) 0.1090(1) 0.0638(1)
C1A C 0.1473(7) 0.0739(7) 0.0973(3)
N1A N 0.1002(6) 0.0501(6) 0.1176(2)
C6B C 0.1049(14) 0.0196(17) 0.2006(6)
N5B N 0.0470(7) -0.0476(6) 0.1816(2)
N5A N -0.0946(7) -0.0470(6) 0.1816(2)
C5A C -0.0860(15) 0.0180(12) 0.2007(6)
H1A H -0.1269(15) 0.0286(12) 0.1941(6)
H2A H -0.0970(15) 0.0001(12) 0.2226(6)
C6A C -0.0853(14) -0.1049(17) 0.2006(6)
C5B C -0.0180(15) -0.1040(12) 0.2007(6)
C7B C 0.0872(12) -0.0875(8) 0.1658(4)
H5B H 0.1235(32) -0.0532(28) 0.1501(23)
H6B H 0.0486(41) -0.1349(34) 0.1556(28)
H7B H 0.1146(74) -0.0997(10) 0.1816(7)
H1B H -0.0286(15) -0.1555(12) 0.1941(6)
H2B H -0.0001(15) -0.0971(12) 0.2226(6)
H3A H -0.0974(14) -0.0997(17) 0.2226(6)
H4A H -0.1250(14) -0.1563(17) 0.1935(6)
C7A C -0.1747(12) -0.0872(8) 0.1658(4)
H5A H -0.1767(32) -0.1235(28) 0.1501(23)
H6A H -0.1835(41) -0.0486(34) 0.1556(28)
H7A H -0.2143(74) -0.1146(10) 0.1816(7)
H3B H 0.0997(14) 0.0023(17) 0.2226(6)
H4B H 0.1563(14) 0.0313(17) 0.1935(6)
C3A C 0.2096(7) 0.0108(8) 0.0610(3)
N3A N 0.2017(6) -0.0501(7) 0.0575(3)
N6K N 0.1931(7) -0.1929(6) 0.0959(3)
C8K C 0.1355(18) -0.2866(18) 0.0958(8)
C10K C 0.1135(17) -0.3257(18) 0.0774(7)
N7K N 0.1454(7) -0.2880(6) 0.0412(3)
N8K N 0.2878(7) -0.1457(6) 0.0412(3)
C14K C 0.2688(17) -0.2230(16) 0.0179(7)
C12K C 0.2221(17) -0.2689(16) 0.0176(7)
C21K C 0.0748(9) -0.3362(9) 0.0213(4)
H11K H 0.0293(52) -0.3423(45) 0.0321(12)
H12K H 0.0802(32) -0.3108(58) 0.0012(10)
H13K H 0.0695(23) -0.3867(16) 0.0178(21)
C16K C 0.3258(17) -0.1141(17) 0.0778(7)
C18K C 0.2857(19) -0.1348(18) 0.0961(7)
C20K C 0.1629(11) -0.1619(9) 0.1220(3)
H8K H 0.1859(14) -0.1063(42) 0.1197(16)
H9K H 0.1070(49) -0.1862(43) 0.1204(17)
H10K H 0.1764(39) -0.1736(9) 0.1424(3)
C22K C 0.3364(9) -0.0752(9) 0.0214(4)
H14K H 0.3105(29) -0.0800(58) 0.0015(11)
H15K H 0.3434(11) -0.0295(46) 0.0325(11)
H16K H 0.3864(35) -0.0706(15) 0.0176(21)
C4A C 0.2094(8) 0.1989(8) 0.0610(3)
N4A N 0.2013(7) 0.2515(7) 0.0575(3)
N6I N 0.1929(7) 0.3860(6) 0.0959(3)
C8I C 0.2866(18) 0.4221(18) 0.0958(8)
C10I C 0.3257(17) 0.4392(18) 0.0774(7)
N7I N 0.2880(7) 0.4334(6) 0.0412(3)
N8I N 0.1457(7) 0.4335(6) 0.0412(3)
C14I C 0.2230(17) 0.4918(16) 0.0179(7)
C12I C 0.2689(17) 0.4910(16) 0.0176(7)
C21I C 0.3362(9) 0.4110(9) 0.0213(4)
H11I H 0.3423(52) 0.3716(45) 0.0321(12)
H12I H 0.3108(32) 0.3910(58) 0.0012(10)
H13I H 0.3867(23) 0.4562(16) 0.0178(21)
C16I C 0.1141(17) 0.4399(17) 0.0778(7)
C18I C 0.1348(19) 0.4205(18) 0.0961(7)
C20I C 0.1619(11) 0.3248(9) 0.1220(3)
H8I H 0.1063(14) 0.2922(42) 0.1197(16)
H9I H 0.1862(49) 0.2932(43) 0.1204(17)
H10I H 0.1736(39) 0.3500(9) 0.1424(3)
C22I C 0.0752(9) 0.4116(9) 0.0214(4)
H14I H 0.0800(29) 0.3905(58) 0.0015(11)
H15I H 0.0295(11) 0.3729(46) 0.0325(11)
H16I H 0.0706(35) 0.4570(15) 0.0176(21)
Br1A Br 0.3532(2) 0.1766(1) 0.1014(1)
N3I N 0.2518(6) 0.2017(7) -0.0575(3)
C3I C 0.1988(7) 0.2096(8) -0.0610(3)
C4I C 0.0105(8) 0.2094(8) -0.0610(3)
N4I N -0.0502(7) 0.2013(7) -0.0575(3)
N6B N -0.1931(7) 0.1929(6) -0.0959(3)
C8B C -0.1355(18) 0.2866(18) -0.0958(8)
C10B C -0.1135(17) 0.3257(18) -0.0774(7)
N7B N -0.1454(7) 0.2880(6) -0.0412(3)
N8B N -0.2878(7) 0.1457(6) -0.0412(3)
C14B C -0.2688(17) 0.2230(16) -0.0179(7)
C12B C -0.2221(17) 0.2689(16) -0.0176(7)
C21B C -0.0748(9) 0.3362(9) -0.0213(4)
H11B H -0.0293(52) 0.3423(45) -0.0321(12)
H12B H -0.0802(32) 0.3108(58) -0.0012(10)
H13B H -0.0695(23) 0.3867(16) -0.0178(21)
C16B C -0.3258(17) 0.1141(17) -0.0778(7)
C18B C -0.2857(19) 0.1348(18) -0.0961(7)
C20B C -0.1629(11) 0.1619(9) -0.1220(3)
H8B H -0.1859(14) 0.1063(42) -0.1197(16)
H9B H -0.1070(49) 0.1862(43) -0.1204(17)
H10B H -0.1764(39) 0.1736(9) -0.1424(3)
C22B C -0.3364(9) 0.0752(9) -0.0214(4)
H14B H -0.3105(29) 0.0800(58) -0.0015(11)
H15B H -0.3434(11) 0.0295(46) -0.0325(11)
H16B H -0.3864(35) 0.0706(15) -0.0176(21)
Br1I Br 0.1766(2) 0.3532(1) -0.1014(1)
N6A N 0.3860(7) 0.1931(6) -0.0959(3)
C8A C 0.4221(18) 0.1355(18) -0.0958(8)
C10A C 0.4392(17) 0.1135(18) -0.0774(7)
N7A N 0.4334(7) 0.1454(6) -0.0412(3)
N8A N 0.4335(7) 0.2878(6) -0.0412(3)
C14A C 0.4918(17) 0.2688(16) -0.0179(7)
C12A C 0.4910(17) 0.2221(16) -0.0176(7)
C21A C 0.4110(9) 0.0748(9) -0.0213(4)
H11A H 0.3716(52) 0.0293(45) -0.0321(12)
H12A H 0.3910(32) 0.0802(58) -0.0012(10)
H13A H 0.4562(23) 0.0695(16) -0.0178(21)
C16A C 0.4399(17) 0.3258(17) -0.0778(7)
C18A C 0.4205(19) 0.2857(18) -0.0961(7)
C20A C 0.3248(11) 0.1629(9) -0.1220(3)
H8A H 0.2922(14) 0.1859(42) -0.1197(16)
H9A H 0.2932(49) 0.1070(43) -0.1204(17)
H10A H 0.3500(39) 0.1764(9) -0.1424(3)
C22A C 0.4116(9) 0.3364(9) -0.0214(4)
H14A H 0.3905(29) 0.3105(58) -0.0015(11)
H15A H 0.3729(11) 0.3434(46) -0.0325(11)
H16A H 0.4570(35) 0.3864(15) -0.0176(21)
Br1K Br 0.1766(2) -0.1766(1) -0.1014(1)
Br1J Br -0.3532(2) -0.1766(1) -0.1014(1)
Br1B Br -0.1766(2) 0.1766(1) 0.1014(1)
loop_
_geom_bond_atom_site_label_1
_geom_bond_atom_site_label_2
_geom_bond_site_symmetry_1
_geom_bond_site_symmetry_2
Ni1 C1 1_555 1_555
Ni1 C2 1_555 1_555
Ni1 C3 1_555 1_555
Ni1 C4 1_555 1_555
Ni1 Br1 1_555 1_555
C1 N1 1_555 1_555
N1 Mo1 1_555 1_555
C2 N2 1_555 1_555
N2 Mo2 1_555 1_555
C3 N3 1_555 1_555
N3 Mo2J 1_555 1_555
C4 N4 1_555 1_555
N4 Mo2K 1_555 1_555
Mo1 N5 1_555 1_555
Mo1 N1B 1_555 1_555
Mo1 N1A 1_555 1_555
Mo1 N5B 1_555 1_555
Mo1 N5A 1_555 1_555
N5 C5 1_555 1_555
N5 C6 1_555 1_555
N5 C7 1_555 1_555
C5 H1 1_555 1_555
C5 H2 1_555 1_555
C5 C6B 1_555 1_555
C6 H3 1_555 1_555
C6 H4 1_555 1_555
C6 C5A 1_555 1_555
C7 H5 1_555 1_555
C7 H6 1_555 1_555
C7 H7 1_555 1_555
Mo2 N6 1_555 1_555
Mo2 N7 1_555 1_555
Mo2 N8 1_555 1_555
Mo2 N4J 1_555 1_555
Mo2 N3K 1_555 1_555
N6 C8 1_555 1_555
N6 C18 1_555 1_555
N6 C20 1_555 1_555
N7 C10 1_555 1_555
N7 C12 1_555 1_555
N7 C21 1_555 1_555
N8 C14 1_555 1_555
N8 C16 1_555 1_555
N8 C22 1_555 1_555
C8 C10 1_555 1_555
C12 C14 1_555 1_555
C16 C18 1_555 1_555
C20 H8 1_555 1_555
C20 H9 1_555 1_555
C20 H10 1_555 1_555
C21 H11 1_555 1_555
C21 H12 1_555 1_555
C21 H13 1_555 1_555
C22 H14 1_555 1_555
C22 H15 1_555 1_555
C22 H16 1_555 1_555
N1B C1B 1_555 1_555
C1B Ni1B 1_555 1_555
Ni1B C2B 1_555 1_555
Ni1B C3B 1_555 1_555
Ni1B C4B 1_555 1_555
Ni1B Br1B 1_555 1_555
C2B N2B 1_555 1_555
N2B Mo2B 1_555 1_555
Mo2B N3J 1_555 1_555
Mo2B N4I 1_555 1_555
Mo2B N6B 1_555 1_555
Mo2B N7B 1_555 1_555
Mo2B N8B 1_555 1_555
N3J C3J 1_555 1_555
C3J Ni1J 1_555 1_555
Ni1J C1J 1_555 1_555
Ni1J C2J 1_555 1_555
Ni1J C4J 1_555 1_555
Ni1J Br1J 1_555 1_555
C1J N1J 1_555 1_555
N1J Mo1J 1_555 1_555
Mo1J N1I 1_555 1_555
Mo1J N1K 1_555 1_555
Mo1J N5J 1_555 1_555
Mo1J N5I 1_555 1_555
Mo1J N5K 1_555 1_555
N1I C1I 1_555 1_555
C1I Ni1I 1_555 1_555
Ni1I C2I 1_555 1_555
Ni1I C3I 1_555 1_555
Ni1I C4I 1_555 1_555
Ni1I Br1I 1_555 1_555
C2I N2I 1_555 1_555
N2I Mo2I 1_555 1_555
Mo2I N3B 1_555 1_555
Mo2I N4A 1_555 1_555
Mo2I N6I 1_555 1_555
Mo2I N7I 1_555 1_555
Mo2I N8I 1_555 1_555
N3B C3B 1_555 1_555
C4B N4B 1_555 1_555
N4B Mo2J 1_555 1_555
Mo2J N2J 1_555 1_555
Mo2J N6J 1_555 1_555
Mo2J N7J 1_555 1_555
Mo2J N8J 1_555 1_555
N2J C2J 1_555 1_555
C4J N4J 1_555 1_555
N6J C8J 1_555 1_555
N6J C18J 1_555 1_555
N6J C20J 1_555 1_555
C8J C10J 1_555 1_555
C10J N7J 1_555 1_555
N7J C12J 1_555 1_555
N7J C21J 1_555 1_555
N8J C14J 1_555 1_555
N8J C16J 1_555 1_555
N8J C22J 1_555 1_555
C14J C12J 1_555 1_555
C21J H11J 1_555 1_555
C21J H12J 1_555 1_555
C21J H13J 1_555 1_555
C16J C18J 1_555 1_555
C20J H8J 1_555 1_555
C20J H9J 1_555 1_555
C20J H10J 1_555 1_555
C22J H14J 1_555 1_555
C22J H15J 1_555 1_555
C22J H16J 1_555 1_555
Mo2K N2K 1_555 1_555
Mo2K N3A 1_555 1_555
Mo2K N6K 1_555 1_555
Mo2K N7K 1_555 1_555
Mo2K N8K 1_555 1_555
N2K C2K 1_555 1_555
C2K Ni1K 1_555 1_555
Ni1K C1K 1_555 1_555
Ni1K C3K 1_555 1_555
Ni1K C4K 1_555 1_555
Ni1K Br1K 1_555 1_555
C1K N1K 1_555 1_555
N5J C5J 1_555 1_555
N5J C6J 1_555 1_555
N5J C7J 1_555 1_555
C5J C6I 1_555 1_555
C5J H1J 1_555 1_555
C5J H2J 1_555 1_555
C6I N5I 1_555 1_555
C6I H3I 1_555 1_555
C6I H4I 1_555 1_555
N5I C5I 1_555 1_555
N5I C7I 1_555 1_555
N5K C5K 1_555 1_555
N5K C6K 1_555 1_555
N5K C7K 1_555 1_555
C5K C6J 1_555 1_555
C5K H1K 1_555 1_555
C5K H2K 1_555 1_555
C6J H3J 1_555 1_555
C6J H4J 1_555 1_555
C7J H5J 1_555 1_555
C7J H6J 1_555 1_555
C7J H7J 1_555 1_555
C6K C5I 1_555 1_555
C6K H3K 1_555 1_555
C6K H4K 1_555 1_555
C5I H1I 1_555 1_555
C5I H2I 1_555 1_555
C7I H5I 1_555 1_555
C7I H6I 1_555 1_555
C7I H7I 1_555 1_555
C7K H5K 1_555 1_555
C7K H6K 1_555 1_555
C7K H7K 1_555 1_555
C3K N3K 1_555 1_555
C4K N4K 1_555 1_555
N4K Mo2A 1_555 1_555
Mo2A N2A 1_555 1_555
Mo2A N3I 1_555 1_555
Mo2A N6A 1_555 1_555
Mo2A N7A 1_555 1_555
Mo2A N8A 1_555 1_555
N2A C2A 1_555 1_555
C2A Ni1A 1_555 1_555
Ni1A C1A 1_555 1_555
Ni1A C3A 1_555 1_555
Ni1A C4A 1_555 1_555
Ni1A Br1A 1_555 1_555
C1A N1A 1_555 1_555
C6B N5B 1_555 1_555
C6B H3B 1_555 1_555
C6B H4B 1_555 1_555
N5B C5B 1_555 1_555
N5B C7B 1_555 1_555
N5A C5A 1_555 1_555
N5A C6A 1_555 1_555
N5A C7A 1_555 1_555
C5A H1A 1_555 1_555
C5A H2A 1_555 1_555
C6A C5B 1_555 1_555
C6A H3A 1_555 1_555
C6A H4A 1_555 1_555
C5B H1B 1_555 1_555
C5B H2B 1_555 1_555
C7B H5B 1_555 1_555
C7B H6B 1_555 1_555
C7B H7B 1_555 1_555
C7A H5A 1_555 1_555
C7A H6A 1_555 1_555
C7A H7A 1_555 1_555
C3A N3A 1_555 1_555
N6K C8K 1_555 1_555
N6K C18K 1_555 1_555
N6K C20K 1_555 1_555
C8K C10K 1_555 1_555
C10K N7K 1_555 1_555
N7K C12K 1_555 1_555
N7K C21K 1_555 1_555
N8K C14K 1_555 1_555
N8K C16K 1_555 1_555
N8K C22K 1_555 1_555
C14K C12K 1_555 1_555
C21K H11K 1_555 1_555
C21K H12K 1_555 1_555
C21K H13K 1_555 1_555
C16K C18K 1_555 1_555
C20K H8K 1_555 1_555
C20K H9K 1_555 1_555
C20K H10K 1_555 1_555
C22K H14K 1_555 1_555
C22K H15K 1_555 1_555
C22K H16K 1_555 1_555
C4A N4A 1_555 1_555
N6I C8I 1_555 1_555
N6I C18I 1_555 1_555
N6I C20I 1_555 1_555
C8I C10I 1_555 1_555
C10I N7I 1_555 1_555
N7I C12I 1_555 1_555
N7I C21I 1_555 1_555
N8I C14I 1_555 1_555
N8I C16I 1_555 1_555
N8I C22I 1_555 1_555
C14I C12I 1_555 1_555
C21I H11I 1_555 1_555
C21I H12I 1_555 1_555
C21I H13I 1_555 1_555
C16I C18I 1_555 1_555
C20I H8I 1_555 1_555
C20I H9I 1_555 1_555
C20I H10I 1_555 1_555
C22I H14I 1_555 1_555
C22I H15I 1_555 1_555
C22I H16I 1_555 1_555
N3I C3I 1_555 1_555
C4I N4I 1_555 1_555
N6B C8B 1_555 1_555
N6B C18B 1_555 1_555
N6B C20B 1_555 1_555
C8B C10B 1_555 1_555
C10B N7B 1_555 1_555
N7B C12B 1_555 1_555
N7B C21B 1_555 1_555
N8B C14B 1_555 1_555
N8B C16B 1_555 1_555
N8B C22B 1_555 1_555
C14B C12B 1_555 1_555
C21B H11B 1_555 1_555
C21B H12B 1_555 1_555
C21B H13B 1_555 1_555
C16B C18B 1_555 1_555
C20B H8B 1_555 1_555
C20B H9B 1_555 1_555
C20B H10B 1_555 1_555
C22B H14B 1_555 1_555
C22B H15B 1_555 1_555
C22B H16B 1_555 1_555
N6A C8A 1_555 1_555
N6A C18A 1_555 1_555
N6A C20A 1_555 1_555
C8A C10A 1_555 1_555
C10A N7A 1_555 1_555
N7A C12A 1_555 1_555
N7A C21A 1_555 1_555
N8A C14A 1_555 1_555
N8A C16A 1_555 1_555
N8A C22A 1_555 1_555
C14A C12A 1_555 1_555
C21A H11A 1_555 1_555
C21A H12A 1_555 1_555
C21A H13A 1_555 1_555
C16A C18A 1_555 1_555
C20A H8A 1_555 1_555
C20A H9A 1_555 1_555
C20A H10A 1_555 1_555
C22A H14A 1_555 1_555
C22A H15A 1_555 1_555
C22A H16A 1_555 1_555

#END
