
#######################################################################
#
#                 Cambridge Crystallographic Data Centre
#                                CCDC 
#
#######################################################################
#
# If this CIF has been generated from an entry in the Cambridge 
# Structural Database, then it will include bibliographic, chemical, 
# crystal, experimental, refinement or atomic coordinate data resulting 
# from the CCDC's data processing and validation procedures.
#
#######################################################################

data_XUCTOF
_chemical_formula_moiety         'C24 H82 Cu4 N16 O63 P2 W18,0.81(H2 O1)'
_chemical_name_systematic        
"bis(\m~9~-Phosphato)-tris(\m~3~-oxo)-tetratriacontakis(\m~2~-oxo)-aqua-octakis(1,2-diaminopropane-N,N')-heptadeca-oxo-tetra-copper(ii)-di-tungsten(v)-hexadeca-tungsten(vi) hydrate"
_symmetry_cell_setting           orthorhombic
_symmetry_space_group_name_H-M   'P 21 21 21'
_symmetry_Int_Tables_number      19
_space_group_name_Hall           'P 2ac 2ab'
loop_
_symmetry_equiv_pos_site_id
_symmetry_equiv_pos_as_xyz
1 x,y,z
2 1/2-x,-y,1/2+z
3 -x,1/2+y,1/2-z
4 1/2+x,1/2-y,-z
_cell_length_a                   13.452(3)
_cell_length_b                   22.493(5)
_cell_length_c                   29.609(7)
_cell_angle_alpha                90
_cell_angle_beta                 90
_cell_angle_gamma                90
_cell_volume                     8958.97
_exptl_crystal_colour            'deep brown'
_exptl_crystal_description       block
_cell_formula_units_Z            4
loop_
_atom_site_label
_atom_site_type_symbol
_atom_site_fract_x
_atom_site_fract_y
_atom_site_fract_z
W1 W 0.41307(5) 0.28487(3) 0.21134(2)
W2 W 0.16390(5) 0.27801(3) 0.19469(2)
W3 W 0.27431(6) 0.18709(3) 0.27150(3)
W4 W 0.50927(6) 0.35088(3) 0.31791(3)
W5 W 0.38298(5) 0.44521(3) 0.23385(3)
W6 W 0.13526(5) 0.43713(3) 0.22264(2)
W7 W -0.00755(6) 0.32582(3) 0.28621(3)
W8 W 0.10703(7) 0.23957(3) 0.36236(3)
W9 W 0.37835(7) 0.25053(3) 0.37628(3)
W10 W 0.46852(6) 0.46384(3) 0.40919(3)
W11 W 0.34669(5) 0.55844(3) 0.32460(2)
W12 W 0.10060(5) 0.55111(3) 0.31278(2)
W13 W -0.04757(5) 0.44083(3) 0.37602(3)
W14 W 0.06657(7) 0.35399(4) 0.45169(3)
W15 W 0.33789(8) 0.36321(4) 0.46725(3)
W16 W 0.30544(6) 0.58613(3) 0.44644(3)
W17 W 0.05503(6) 0.57448(3) 0.43477(3)
W18 W 0.17563(7) 0.48398(3) 0.50826(3)
Cu1 Cu 0.25411(15) 0.03962(9) 0.20682(7)
Cu2 Cu 0.2881(3) 0.61264(14) 0.57328(10)
Cu3 Cu 0.22529(17) 0.69993(10) 0.27333(9)
P1 P 0.2518(3) 0.33856(15) 0.29674(12)
P2 P 0.2101(3) 0.45951(16) 0.39301(13)
O1 O 0.5024(11) 0.2738(6) 0.1725(5)
O2 O 0.1022(10) 0.2589(6) 0.1480(5)
O3 O 0.2829(11) 0.1108(6) 0.2682(5)
O4 O 0.6363(9) 0.3540(5) 0.3125(4)
O5 O 0.4681(9) 0.4816(5) 0.2011(4)
O6 O 0.0658(8) 0.4673(5) 0.1833(4)
O7 O -0.1262(9) 0.3178(5) 0.2648(4)
O8 O 0.0656(9) 0.1781(5) 0.3891(4)
O9 O 0.4206(10) 0.1911(5) 0.4073(4)
O10 O 0.5861(10) 0.4855(6) 0.4180(5)
O11 O 0.4301(10) 0.6148(5) 0.3052(4)
O12 O 0.0248(10) 0.5996(5) 0.2842(4)
O13 O -0.1718(10) 0.4573(5) 0.3718(4)
O14 O 0.0085(9) 0.3133(5) 0.4938(4)
O15 O 0.3737(10) 0.3238(5) 0.5157(4)
O16 O 0.3720(12) 0.6484(6) 0.4650(5)
O17 O -0.0354(10) 0.6287(6) 0.4450(4)
O18 O 0.1566(13) 0.4800(6) 0.5643(6)
O19 O 0.2686(8) 0.2917(5) 0.2578(4)
O20 O 0.2532(8) 0.3999(4) 0.2715(4)
O21 O 0.3379(8) 0.3316(4) 0.3307(4)
O22 O 0.1509(8) 0.3233(5) 0.3197(4)
O23 O 0.2947(8) 0.2786(6) 0.1709(4)
O24 O 0.1939(8) 0.1996(5) 0.2180(4)
O25 O 0.3853(8) 0.2049(5) 0.2311(4)
O26 O 0.3922(9) 0.3683(5) 0.2054(4)
O27 O 0.1635(8) 0.3612(4) 0.1928(4)
O28 O 0.0594(8) 0.2830(4) 0.2384(4)
O29 O 0.3599(7) 0.2099(5) 0.3208(4)
O30 O 0.1654(8) 0.1998(4) 0.3088(4)
O31 O 0.4850(8) 0.3018(5) 0.2640(4)
O32 O 0.4631(7) 0.4158(5) 0.2803(4)
O33 O 0.2634(8) 0.4623(4) 0.2002(3)
O34 O 0.0385(8) 0.3958(5) 0.2589(3)
O35 O -0.0068(9) 0.2575(5) 0.3231(4)
O36 O 0.2372(8) 0.2444(5) 0.3863(4)
O37 O 0.5008(9) 0.2801(5) 0.3528(4)
O38 O 0.1345(8) 0.5031(5) 0.2625(4)
O39 O 0.4938(9) 0.3985(5) 0.3703(4)
O40 O 0.3485(8) 0.5105(5) 0.2719(4)
O41 O -0.0374(8) 0.3755(4) 0.3368(4)
O42 O 0.0669(7) 0.2984(5) 0.4048(4)
O43 O 0.3853(9) 0.3097(5) 0.4239(4)
O44 O 0.3048(7) 0.4243(5) 0.4047(4)
O45 O 0.1165(8) 0.4186(5) 0.3941(4)
O46 O 0.2200(8) 0.4942(4) 0.3491(3)
O47 O 0.1945(8) 0.5073(4) 0.4319(3)
O48 O 0.4333(8) 0.5071(5) 0.3571(4)
O49 O 0.2224(8) 0.5953(5) 0.3046(4)
O50 O 0.0108(8) 0.4917(5) 0.3301(4)
O51 O -0.0531(9) 0.3912(5) 0.4274(4)
O52 O 0.2058(8) 0.3396(4) 0.4589(4)
O53 O 0.4564(9) 0.4090(5) 0.4588(4)
O54 O 0.0847(7) 0.5863(4) 0.3706(4)
O55 O 0.4071(10) 0.5261(5) 0.4421(4)
O56 O 0.3139(9) 0.5961(5) 0.3820(4)
O57 O 0.2844(10) 0.4358(6) 0.4980(5)
O58 O -0.0198(9) 0.5077(5) 0.4174(4)
O59 O 0.0883(9) 0.4252(5) 0.4875(4)
O60 O 0.2627(8) 0.5507(5) 0.5067(4)
O61 O 0.1769(9) 0.6205(5) 0.4459(4)
O62 O 0.0728(9) 0.5446(5) 0.4913(4)
N1 N 0.2029(13) 0.6787(7) 0.5447(6)
H5 H 0.23800 0.71280 0.54470
H6 H 0.18970 0.66940 0.51570
N2 N 0.1633(16) 0.5989(8) 0.6080(7)
H7 H 0.15040 0.55970 0.60920
H8 H 0.17120 0.61230 0.63640
N3 N 0.3536(13) 0.5366(7) 0.5934(6)
H9 H 0.35060 0.53380 0.62360
H10 H 0.32190 0.50520 0.58130
N4 N 0.4248(14) 0.6416(9) 0.5629(7)
H11 H 0.43510 0.64780 0.53320
H12 H 0.43600 0.67560 0.57790
N5 N 0.3385(12) -0.0197(7) 0.2425(6)
H13 H 0.36140 -0.04820 0.22400
H14 H 0.39150 -0.00100 0.25480
N6 N 0.1405(12) 0.0077(7) 0.2445(6)
H15 H 0.10820 0.03850 0.25720
H16 H 0.09750 -0.01130 0.22640
N7 N 0.3682(11) 0.0713(7) 0.1689(6)
H17 H 0.41620 0.08510 0.18710
H18 H 0.39380 0.04170 0.15210
N8 N 0.1647(10) 0.0912(7) 0.1650(5)
H19 H 0.11150 0.07040 0.15570
H20 H 0.14360 0.12400 0.17960
N9 N 0.3466(12) 0.6999(7) 0.2336(6)
H21 H 0.36800 0.73750 0.22920
H22 H 0.39540 0.67950 0.24720
N10 N 0.1564(11) 0.6712(6) 0.2196(5)
H23 H 0.11050 0.64430 0.22770
H24 H 0.12520 0.70190 0.20630
N11 N 0.3011(11) 0.7292(7) 0.3304(5)
H25 H 0.33150 0.69850 0.34400
H26 H 0.34730 0.75630 0.32270
N12 N 0.1034(12) 0.7178(7) 0.3082(6)
H27 H 0.06640 0.74480 0.29360
H28 H 0.06690 0.68450 0.31170
C1 C 0.1122(17) 0.6882(9) 0.5688(8)
H33 H 0.12730 0.71370 0.59470
C2 C 0.082(2) 0.6285(10) 0.5876(9)
H34 H 0.02980 0.63390 0.60980
H35 H 0.05560 0.60390 0.56350
C3 C 0.0391(16) 0.7212(9) 0.5404(8)
H36 H 0.06800 0.75780 0.53070
H37 H -0.01970 0.72920 0.55790
H38 H 0.02150 0.69760 0.51460
C4 C 0.455(2) 0.5360(15) 0.5788(13)
H39 H 0.45490 0.52310 0.54740
C5 C 0.490(2) 0.594(1) 0.5788(11)
H40 H 0.55090 0.59500 0.56060
H41 H 0.50890 0.60420 0.60910
C6 C 0.5184(17) 0.4854(11) 0.6066(8)
H42 H 0.58700 0.48750 0.59700
H43 H 0.49350 0.44630 0.60110
H44 H 0.51610 0.49350 0.63870
C7 C 0.280(2) -0.0452(11) 0.2777(9)
H45 H 0.30160 -0.01940 0.30270
C8 C 0.1720(17) -0.0333(11) 0.2814(8)
H46 H 0.15720 -0.01610 0.31080
H47 H 0.13480 -0.07030 0.27900
C9 C 0.3206(17) -0.1009(11) 0.2944(9)
H48 H 0.39110 -0.10080 0.29050
H49 H 0.29200 -0.13360 0.27800
H50 H 0.30470 -0.10480 0.32580
C10 C 0.3340(16) 0.1181(9) 0.1401(7)
H51 H 0.33130 0.15330 0.15940
C11 C 0.2283(15) 0.1077(8) 0.1263(7)
H52 H 0.20190 0.14320 0.11240
H53 H 0.22660 0.07590 0.10430
C12 C 0.4045(18) 0.1357(11) 0.1009(8)
H54 H 0.47000 0.14170 0.11280
H55 H 0.38180 0.17160 0.08670
H56 H 0.40600 0.10420 0.07900
C13 C 0.3258(17) 0.6707(12) 0.1883(8)
H57 H 0.33640 0.69870 0.16340
C14 C 0.2233(15) 0.6446(10) 0.1883(9)
H58 H 0.19560 0.64880 0.15810
H59 H 0.22830 0.60260 0.19470
C15 C 0.401(2) 0.6275(10) 0.1885(12)
H60 H 0.40580 0.60190 0.16280
H61 H 0.39130 0.60360 0.21530
H62 H 0.46170 0.64970 0.19180
C16 C 0.2288(18) 0.7556(13) 0.3611(8)
H63 H 0.22980 0.79660 0.35050
C17 C 0.1312(17) 0.7408(12) 0.3520(9)
H64 H 0.09120 0.77620 0.35760
H65 H 0.11150 0.71160 0.37430
C18 C 0.2693(18) 0.7632(9) 0.4066(7)
H66 H 0.22070 0.78240 0.42520
H67 H 0.32820 0.78730 0.40510
H68 H 0.28530 0.72500 0.41880
loop_
_geom_bond_atom_site_label_1
_geom_bond_atom_site_label_2
_geom_bond_site_symmetry_1
_geom_bond_site_symmetry_2
W1 O1 1_555 1_555
W1 O19 1_555 1_555
W1 O23 1_555 1_555
W1 O25 1_555 1_555
W1 O26 1_555 1_555
W1 O31 1_555 1_555
W2 O2 1_555 1_555
W2 O19 1_555 1_555
W2 O23 1_555 1_555
W2 O24 1_555 1_555
W2 O27 1_555 1_555
W2 O28 1_555 1_555
W3 O3 1_555 1_555
W3 O19 1_555 1_555
W3 O24 1_555 1_555
W3 O25 1_555 1_555
W3 O29 1_555 1_555
W3 O30 1_555 1_555
W4 O4 1_555 1_555
W4 O21 1_555 1_555
W4 O31 1_555 1_555
W4 O32 1_555 1_555
W4 O37 1_555 1_555
W4 O39 1_555 1_555
W5 O5 1_555 1_555
W5 O20 1_555 1_555
W5 O26 1_555 1_555
W5 O32 1_555 1_555
W5 O33 1_555 1_555
W5 O40 1_555 1_555
W6 O6 1_555 1_555
W6 O20 1_555 1_555
W6 O27 1_555 1_555
W6 O33 1_555 1_555
W6 O34 1_555 1_555
W6 O38 1_555 1_555
W7 O7 1_555 1_555
W7 O22 1_555 1_555
W7 O28 1_555 1_555
W7 O34 1_555 1_555
W7 O35 1_555 1_555
W7 O41 1_555 1_555
W8 O8 1_555 1_555
W8 O22 1_555 1_555
W8 O30 1_555 1_555
W8 O35 1_555 1_555
W8 O36 1_555 1_555
W8 O42 1_555 1_555
W9 O9 1_555 1_555
W9 O21 1_555 1_555
W9 O29 1_555 1_555
W9 O36 1_555 1_555
W9 O37 1_555 1_555
W9 O43 1_555 1_555
W10 O10 1_555 1_555
W10 O39 1_555 1_555
W10 O44 1_555 1_555
W10 O48 1_555 1_555
W10 O53 1_555 1_555
W10 O55 1_555 1_555
W11 O11 1_555 1_555
W11 O40 1_555 1_555
W11 O46 1_555 1_555
W11 O48 1_555 1_555
W11 O49 1_555 1_555
W11 O56 1_555 1_555
W12 O12 1_555 1_555
W12 O38 1_555 1_555
W12 O46 1_555 1_555
W12 O49 1_555 1_555
W12 O50 1_555 1_555
W12 O54 1_555 1_555
W13 O13 1_555 1_555
W13 O41 1_555 1_555
W13 O45 1_555 1_555
W13 O50 1_555 1_555
W13 O51 1_555 1_555
W13 O58 1_555 1_555
W14 O14 1_555 1_555
W14 O42 1_555 1_555
W14 O45 1_555 1_555
W14 O51 1_555 1_555
W14 O52 1_555 1_555
W14 O59 1_555 1_555
W15 O15 1_555 1_555
W15 O43 1_555 1_555
W15 O44 1_555 1_555
W15 O52 1_555 1_555
W15 O53 1_555 1_555
W15 O57 1_555 1_555
W16 O16 1_555 1_555
W16 O47 1_555 1_555
W16 O55 1_555 1_555
W16 O56 1_555 1_555
W16 O60 1_555 1_555
W16 O61 1_555 1_555
W17 O17 1_555 1_555
W17 O47 1_555 1_555
W17 O54 1_555 1_555
W17 O58 1_555 1_555
W17 O61 1_555 1_555
W17 O62 1_555 1_555
W18 O18 1_555 1_555
W18 O47 1_555 1_555
W18 O57 1_555 1_555
W18 O59 1_555 1_555
W18 O60 1_555 1_555
W18 O62 1_555 1_555
Cu1 O3 1_555 1_555
Cu1 N5 1_555 1_555
Cu1 N6 1_555 1_555
Cu1 N7 1_555 1_555
Cu1 N8 1_555 1_555
Cu2 O60 1_555 1_555
Cu2 N1 1_555 1_555
Cu2 N2 1_555 1_555
Cu2 N3 1_555 1_555
Cu2 N4 1_555 1_555
Cu3 O49 1_555 1_555
Cu3 N9 1_555 1_555
Cu3 N10 1_555 1_555
Cu3 N11 1_555 1_555
Cu3 N12 1_555 1_555
P1 O19 1_555 1_555
P1 O20 1_555 1_555
P1 O21 1_555 1_555
P1 O22 1_555 1_555
P2 O44 1_555 1_555
P2 O45 1_555 1_555
P2 O46 1_555 1_555
P2 O47 1_555 1_555
N1 H5 1_555 1_555
N1 H6 1_555 1_555
N1 C1 1_555 1_555
N2 H7 1_555 1_555
N2 H8 1_555 1_555
N2 C2 1_555 1_555
N3 H9 1_555 1_555
N3 H10 1_555 1_555
N3 C4 1_555 1_555
N4 H11 1_555 1_555
N4 H12 1_555 1_555
N4 C5 1_555 1_555
N5 H13 1_555 1_555
N5 H14 1_555 1_555
N5 C7 1_555 1_555
N6 H15 1_555 1_555
N6 H16 1_555 1_555
N6 C8 1_555 1_555
N7 H17 1_555 1_555
N7 H18 1_555 1_555
N7 C10 1_555 1_555
N8 H19 1_555 1_555
N8 H20 1_555 1_555
N8 C11 1_555 1_555
N9 H21 1_555 1_555
N9 H22 1_555 1_555
N9 C13 1_555 1_555
N10 H23 1_555 1_555
N10 H24 1_555 1_555
N10 C14 1_555 1_555
N11 H25 1_555 1_555
N11 H26 1_555 1_555
N11 C16 1_555 1_555
N12 H27 1_555 1_555
N12 H28 1_555 1_555
N12 C17 1_555 1_555
C1 H33 1_555 1_555
C1 C2 1_555 1_555
C1 C3 1_555 1_555
C2 H34 1_555 1_555
C2 H35 1_555 1_555
C3 H36 1_555 1_555
C3 H37 1_555 1_555
C3 H38 1_555 1_555
C4 H39 1_555 1_555
C4 C5 1_555 1_555
C4 C6 1_555 1_555
C5 H40 1_555 1_555
C5 H41 1_555 1_555
C6 H42 1_555 1_555
C6 H43 1_555 1_555
C6 H44 1_555 1_555
C7 H45 1_555 1_555
C7 C8 1_555 1_555
C7 C9 1_555 1_555
C8 H46 1_555 1_555
C8 H47 1_555 1_555
C9 H48 1_555 1_555
C9 H49 1_555 1_555
C9 H50 1_555 1_555
C10 H51 1_555 1_555
C10 C11 1_555 1_555
C10 C12 1_555 1_555
C11 H52 1_555 1_555
C11 H53 1_555 1_555
C12 H54 1_555 1_555
C12 H55 1_555 1_555
C12 H56 1_555 1_555
C13 H57 1_555 1_555
C13 C14 1_555 1_555
C13 C15 1_555 1_555
C14 H58 1_555 1_555
C14 H59 1_555 1_555
C15 H60 1_555 1_555
C15 H61 1_555 1_555
C15 H62 1_555 1_555
C16 H63 1_555 1_555
C16 C17 1_555 1_555
C16 C18 1_555 1_555
C17 H64 1_555 1_555
C17 H65 1_555 1_555
C18 H66 1_555 1_555
C18 H67 1_555 1_555
C18 H68 1_555 1_555

#END
